(PID.TID 0000.0001) 
(PID.TID 0000.0001) // ======================================================
(PID.TID 0000.0001) //                      MITgcm UV
(PID.TID 0000.0001) //                      =========
(PID.TID 0000.0001) // ======================================================
(PID.TID 0000.0001) // execution environment starting up...
(PID.TID 0000.0001) 
(PID.TID 0000.0001) // MITgcmUV version:  checkpoint67v
(PID.TID 0000.0001) // Build user:        eavesr
(PID.TID 0000.0001) // Build host:        atmlxint3
(PID.TID 0000.0001) // Build date:        Thu 18 Feb 14:20:24 GMT 2021
(PID.TID 0000.0001) 
(PID.TID 0000.0001) // =======================================================
(PID.TID 0000.0001) // Execution Environment parameter file "eedata"
(PID.TID 0000.0001) // =======================================================
(PID.TID 0000.0001) ># Example "eedata" file
(PID.TID 0000.0001) ># Lines beginning "#" are comments
(PID.TID 0000.0001) >#  nTx      :: No. threads per process in X
(PID.TID 0000.0001) >#  nTy      :: No. threads per process in Y
(PID.TID 0000.0001) ># debugMode :: print debug msg (sequence of S/R calls)
(PID.TID 0000.0001) > &EEPARMS
(PID.TID 0000.0001) > nTx=1,
(PID.TID 0000.0001) > nTy=1,
(PID.TID 0000.0001) > &
(PID.TID 0000.0001) ># Note: Some systems use & as the namelist terminator (as shown here).
(PID.TID 0000.0001) >#       Other systems use a / character.
(PID.TID 0000.0001) 
(PID.TID 0000.0001) // =======================================================
(PID.TID 0000.0001) // Computational Grid Specification ( see files "SIZE.h" )
(PID.TID 0000.0001) //                                  ( and "eedata"       )
(PID.TID 0000.0001) // =======================================================
(PID.TID 0000.0001)      nPx =    1 ; /* No. processes in X */
(PID.TID 0000.0001)      nPy =    1 ; /* No. processes in Y */
(PID.TID 0000.0001)      nSx =    1 ; /* No. tiles in X per process */
(PID.TID 0000.0001)      nSy =    1 ; /* No. tiles in Y per process */
(PID.TID 0000.0001)      sNx =  248 ; /* Tile size in X */
(PID.TID 0000.0001)      sNy =  248 ; /* Tile size in Y */
(PID.TID 0000.0001)      OLx =    2 ; /* Tile overlap distance in X */
(PID.TID 0000.0001)      OLy =    2 ; /* Tile overlap distance in Y */
(PID.TID 0000.0001)      nTx =    1 ; /* No. threads in X per process */
(PID.TID 0000.0001)      nTy =    1 ; /* No. threads in Y per process */
(PID.TID 0000.0001)       Nr =    1 ; /* No. levels in the vertical   */
(PID.TID 0000.0001)       Nx =  248 ; /* Total domain size in X ( = nPx*nSx*sNx ) */
(PID.TID 0000.0001)       Ny =  248 ; /* Total domain size in Y ( = nPy*nSy*sNy ) */
(PID.TID 0000.0001)   nTiles =    1 ; /* Total no. tiles per process ( = nSx*nSy ) */
(PID.TID 0000.0001)   nProcs =    1 ; /* Total no. processes ( = nPx*nPy ) */
(PID.TID 0000.0001) nThreads =    1 ; /* Total no. threads per process ( = nTx*nTy ) */
(PID.TID 0000.0001) usingMPI =    F ; /* Flag used to control whether MPI is in use */
(PID.TID 0000.0001)                   /*  note: To execute a program with MPI calls */
(PID.TID 0000.0001)                   /*  it must be launched appropriately e.g     */
(PID.TID 0000.0001)                   /*  "mpirun -np 64 ......"                    */
(PID.TID 0000.0001) useCoupler=   F ; /* Flag used to control communications with   */
(PID.TID 0000.0001)                   /*  other model components, through a coupler */
(PID.TID 0000.0001) useNest2W_parent =    F ;/* Control 2-W Nesting comm */
(PID.TID 0000.0001) useNest2W_child  =    F ;/* Control 2-W Nesting comm */
(PID.TID 0000.0001) debugMode =    F ; /* print debug msg. (sequence of S/R calls)  */
(PID.TID 0000.0001) printMapIncludesZeros=    F ; /* print zeros in Std.Output maps */
(PID.TID 0000.0001) maxLengthPrt1D=   65 /* maxLength of 1D array printed to StdOut */
(PID.TID 0000.0001) 
(PID.TID 0000.0001) // ======================================================
(PID.TID 0000.0001) // Mapping of tiles to threads
(PID.TID 0000.0001) // ======================================================
(PID.TID 0000.0001) // -o- Thread   1, tiles (   1:   1,   1:   1)
(PID.TID 0000.0001) 
(PID.TID 0000.0001) // ======================================================
(PID.TID 0000.0001) // Tile <-> Tile connectvity table
(PID.TID 0000.0001) // ======================================================
(PID.TID 0000.0001) // Tile number: 000001 (process no. = 000000)
(PID.TID 0000.0001) //        WEST: Tile = 000001, Process = 000000, Comm = put
(PID.TID 0000.0001) //                bi = 000001, bj = 000001
(PID.TID 0000.0001) //        EAST: Tile = 000001, Process = 000000, Comm = put
(PID.TID 0000.0001) //                bi = 000001, bj = 000001
(PID.TID 0000.0001) //       SOUTH: Tile = 000001, Process = 000000, Comm = put
(PID.TID 0000.0001) //                bi = 000001, bj = 000001
(PID.TID 0000.0001) //       NORTH: Tile = 000001, Process = 000000, Comm = put
(PID.TID 0000.0001) //                bi = 000001, bj = 000001
(PID.TID 0000.0001) 
(PID.TID 0000.0001)  INI_PARMS: opening model parameter file "data"
(PID.TID 0000.0001)  OPEN_COPY_DATA_FILE: opening file data
(PID.TID 0000.0001) // =======================================================
(PID.TID 0000.0001) // Parameter file "data"
(PID.TID 0000.0001) // =======================================================
(PID.TID 0000.0001) ># Model parameters
(PID.TID 0000.0001) ># Continuous equation parameters
(PID.TID 0000.0001) > &PARM01
(PID.TID 0000.0001) > viscAh=4.E2,
(PID.TID 0000.0001) > f0=0.7E-4,
(PID.TID 0000.0001) > beta=2.E-11,
(PID.TID 0000.0001) > rhoConst=1027.,
(PID.TID 0000.0001) > gBaro=9.81,
(PID.TID 0000.0001) > rigidLid=.FALSE.,
(PID.TID 0000.0001) > implicitFreeSurface=.TRUE.,
(PID.TID 0000.0001) ># momAdvection=.FALSE.,
(PID.TID 0000.0001) > tempStepping=.FALSE.,
(PID.TID 0000.0001) > saltStepping=.FALSE.,
(PID.TID 0000.0001) > useSingleCpuIO=.TRUE.,
(PID.TID 0000.0001) > hFacMin=0.1,
(PID.TID 0000.0001) > &
(PID.TID 0000.0001) >
(PID.TID 0000.0001) ># Elliptic solver parameters
(PID.TID 0000.0001) > &PARM02
(PID.TID 0000.0001) > cg2dTargetResidual=1.E-7,
(PID.TID 0000.0001) > cg2dMaxIters=1000,
(PID.TID 0000.0001) > &
(PID.TID 0000.0001) >
(PID.TID 0000.0001) ># Time stepping parameters
(PID.TID 0000.0001) > &PARM03
(PID.TID 0000.0001) > nIter0=0,
(PID.TID 0000.0001) > nTimeSteps=216,
(PID.TID 0000.0001) > deltaT=12000.0,
(PID.TID 0000.0001) > pChkptFreq=31104000.0,
(PID.TID 0000.0001) > chkptFreq=25920000.0,
(PID.TID 0000.0001) > dumpFreq=86400.0,
(PID.TID 0000.0001) > monitorFreq=86400.,
(PID.TID 0000.0001) > monitorSelect=2,
(PID.TID 0000.0001) >#-for longer run (3.0 yr):
(PID.TID 0000.0001) ># nTimeSteps=77760,
(PID.TID 0000.0001) ># monitorFreq=864000.,
(PID.TID 0000.0001) > &
(PID.TID 0000.0001) >
(PID.TID 0000.0001) ># Gridding parameters
(PID.TID 0000.0001) > &PARM04
(PID.TID 0000.0001) > usingCartesianGrid=.TRUE.,
(PID.TID 0000.0001) > delX=248*5.E3,
(PID.TID 0000.0001) > delY=248*5.E3,
(PID.TID 0000.0001) > xgOrigin=-5.E3,
(PID.TID 0000.0001) > ygOrigin=-5.E3,
(PID.TID 0000.0001) > delR=5000.,
(PID.TID 0000.0001) > &
(PID.TID 0000.0001) >
(PID.TID 0000.0001) ># Input datasets
(PID.TID 0000.0001) > &PARM05
(PID.TID 0000.0001) > bathyFile='bathy.bin'
(PID.TID 0000.0001) > zonalWindFile='wind.bin',
(PID.TID 0000.0001) >#zonalWindFile='windx_siny.bin',
(PID.TID 0000.0001) > meridWindFile=,
(PID.TID 0000.0001) > &
(PID.TID 0000.0001) 
(PID.TID 0000.0001)  INI_PARMS ; starts to read PARM01
(PID.TID 0000.0001)  INI_PARMS ; read PARM01 : OK
(PID.TID 0000.0001)  INI_PARMS ; starts to read PARM02
(PID.TID 0000.0001)  INI_PARMS ; read PARM02 : OK
(PID.TID 0000.0001)  INI_PARMS ; starts to read PARM03
(PID.TID 0000.0001)  INI_PARMS ; read PARM03 : OK
(PID.TID 0000.0001)  INI_PARMS ; starts to read PARM04
(PID.TID 0000.0001)  INI_PARMS ; read PARM04 : OK
(PID.TID 0000.0001)  INI_PARMS ; starts to read PARM05
(PID.TID 0000.0001)  INI_PARMS ; read PARM05 : OK
(PID.TID 0000.0001)  INI_PARMS: finished reading file "data"
(PID.TID 0000.0001)  PACKAGES_BOOT: opening data.pkg
(PID.TID 0000.0001)  OPEN_COPY_DATA_FILE: opening file data.pkg
(PID.TID 0000.0001) // =======================================================
(PID.TID 0000.0001) // Parameter file "data.pkg"
(PID.TID 0000.0001) // =======================================================
(PID.TID 0000.0001) ># Packages
(PID.TID 0000.0001) > &PACKAGES
(PID.TID 0000.0001) > &
(PID.TID 0000.0001) 
(PID.TID 0000.0001)  PACKAGES_BOOT: finished reading data.pkg
(PID.TID 0000.0001)  PACKAGES_BOOT: On/Off package Summary
 --------  pkgs with a standard "usePKG" On/Off switch in "data.pkg":  --------
 -------- pkgs without standard "usePKG" On/Off switch in "data.pkg":  --------
 pkg/generic_advdiff      compiled but not used ( useGAD                   = F )
 pkg/mom_common           compiled   and   used ( momStepping              = T )
 pkg/mom_vecinv           compiled but not used ( +vectorInvariantMomentum = F )
 pkg/mom_fluxform         compiled   and   used ( & not vectorInvariantMom = T )
 pkg/monitor              compiled   and   used ( monitorFreq > 0.         = T )
 pkg/debug                compiled but not used ( debugMode                = F )
 pkg/rw                   compiled   and   used
 pkg/mdsio                compiled   and   used
(PID.TID 0000.0001)  PACKAGES_BOOT: End of package Summary
(PID.TID 0000.0001) 
(PID.TID 0000.0001) SET_PARMS: done
(PID.TID 0000.0001) Enter INI_VERTICAL_GRID: setInterFDr=    T ; setCenterDr=    F
(PID.TID 0000.0001) %MON XC_max                       =   1.2325000000000E+06
(PID.TID 0000.0001) %MON XC_min                       =  -2.5000000000000E+03
(PID.TID 0000.0001) %MON XC_mean                      =   6.1500000000000E+05
(PID.TID 0000.0001) %MON XC_sd                        =   3.5795425685414E+05
(PID.TID 0000.0001) %MON XG_max                       =   1.2300000000000E+06
(PID.TID 0000.0001) %MON XG_min                       =  -5.0000000000000E+03
(PID.TID 0000.0001) %MON XG_mean                      =   6.1250000000000E+05
(PID.TID 0000.0001) %MON XG_sd                        =   3.5795425685414E+05
(PID.TID 0000.0001) %MON DXC_max                      =   5.0000000000000E+03
(PID.TID 0000.0001) %MON DXC_min                      =   5.0000000000000E+03
(PID.TID 0000.0001) %MON DXC_mean                     =   5.0000000000000E+03
(PID.TID 0000.0001) %MON DXC_sd                       =   9.0949470177293E-13
(PID.TID 0000.0001) %MON DXF_max                      =   5.0000000000000E+03
(PID.TID 0000.0001) %MON DXF_min                      =   5.0000000000000E+03
(PID.TID 0000.0001) %MON DXF_mean                     =   5.0000000000000E+03
(PID.TID 0000.0001) %MON DXF_sd                       =   9.0949470177293E-13
(PID.TID 0000.0001) %MON DXG_max                      =   5.0000000000000E+03
(PID.TID 0000.0001) %MON DXG_min                      =   5.0000000000000E+03
(PID.TID 0000.0001) %MON DXG_mean                     =   5.0000000000000E+03
(PID.TID 0000.0001) %MON DXG_sd                       =   9.0949470177293E-13
(PID.TID 0000.0001) %MON DXV_max                      =   5.0000000000000E+03
(PID.TID 0000.0001) %MON DXV_min                      =   5.0000000000000E+03
(PID.TID 0000.0001) %MON DXV_mean                     =   5.0000000000000E+03
(PID.TID 0000.0001) %MON DXV_sd                       =   9.0949470177293E-13
(PID.TID 0000.0001) %MON YC_max                       =   1.2325000000000E+06
(PID.TID 0000.0001) %MON YC_min                       =  -2.5000000000000E+03
(PID.TID 0000.0001) %MON YC_mean                      =   6.1500000000000E+05
(PID.TID 0000.0001) %MON YC_sd                        =   3.5795425685414E+05
(PID.TID 0000.0001) %MON YG_max                       =   1.2300000000000E+06
(PID.TID 0000.0001) %MON YG_min                       =  -5.0000000000000E+03
(PID.TID 0000.0001) %MON YG_mean                      =   6.1250000000000E+05
(PID.TID 0000.0001) %MON YG_sd                        =   3.5795425685414E+05
(PID.TID 0000.0001) %MON DYC_max                      =   5.0000000000000E+03
(PID.TID 0000.0001) %MON DYC_min                      =   5.0000000000000E+03
(PID.TID 0000.0001) %MON DYC_mean                     =   5.0000000000000E+03
(PID.TID 0000.0001) %MON DYC_sd                       =   9.0949470177293E-13
(PID.TID 0000.0001) %MON DYF_max                      =   5.0000000000000E+03
(PID.TID 0000.0001) %MON DYF_min                      =   5.0000000000000E+03
(PID.TID 0000.0001) %MON DYF_mean                     =   5.0000000000000E+03
(PID.TID 0000.0001) %MON DYF_sd                       =   9.0949470177293E-13
(PID.TID 0000.0001) %MON DYG_max                      =   5.0000000000000E+03
(PID.TID 0000.0001) %MON DYG_min                      =   5.0000000000000E+03
(PID.TID 0000.0001) %MON DYG_mean                     =   5.0000000000000E+03
(PID.TID 0000.0001) %MON DYG_sd                       =   9.0949470177293E-13
(PID.TID 0000.0001) %MON DYU_max                      =   5.0000000000000E+03
(PID.TID 0000.0001) %MON DYU_min                      =   5.0000000000000E+03
(PID.TID 0000.0001) %MON DYU_mean                     =   5.0000000000000E+03
(PID.TID 0000.0001) %MON DYU_sd                       =   9.0949470177293E-13
(PID.TID 0000.0001) %MON RA_max                       =   2.5000000000000E+07
(PID.TID 0000.0001) %MON RA_min                       =   2.5000000000000E+07
(PID.TID 0000.0001) %MON RA_mean                      =   2.5000000000000E+07
(PID.TID 0000.0001) %MON RA_sd                        =   3.7252902984619E-09
(PID.TID 0000.0001) %MON RAW_max                      =   2.5000000000000E+07
(PID.TID 0000.0001) %MON RAW_min                      =   2.5000000000000E+07
(PID.TID 0000.0001) %MON RAW_mean                     =   2.5000000000000E+07
(PID.TID 0000.0001) %MON RAW_sd                       =   3.7252902984619E-09
(PID.TID 0000.0001) %MON RAS_max                      =   2.5000000000000E+07
(PID.TID 0000.0001) %MON RAS_min                      =   2.5000000000000E+07
(PID.TID 0000.0001) %MON RAS_mean                     =   2.5000000000000E+07
(PID.TID 0000.0001) %MON RAS_sd                       =   3.7252902984619E-09
(PID.TID 0000.0001) %MON RAZ_max                      =   2.5000000000000E+07
(PID.TID 0000.0001) %MON RAZ_min                      =   2.5000000000000E+07
(PID.TID 0000.0001) %MON RAZ_mean                     =   2.5000000000000E+07
(PID.TID 0000.0001) %MON RAZ_sd                       =   3.7252902984619E-09
(PID.TID 0000.0001) %MON AngleCS_max                  =   1.0000000000000E+00
(PID.TID 0000.0001) %MON AngleCS_min                  =   1.0000000000000E+00
(PID.TID 0000.0001) %MON AngleCS_mean                 =   1.0000000000000E+00
(PID.TID 0000.0001) %MON AngleCS_sd                   =   0.0000000000000E+00
(PID.TID 0000.0001) %MON AngleSN_max                  =   0.0000000000000E+00
(PID.TID 0000.0001) %MON AngleSN_min                  =   0.0000000000000E+00
(PID.TID 0000.0001) %MON AngleSN_mean                 =   0.0000000000000E+00
(PID.TID 0000.0001) %MON AngleSN_sd                   =   0.0000000000000E+00
(PID.TID 0000.0001)  MDS_READ_FIELD: opening global file: bathy.bin
(PID.TID 0000.0001) // =======================================================
(PID.TID 0000.0001) // Field Model R_low (ini_masks_etc)
(PID.TID 0000.0001) // CMIN =         -4.999819335937500E+03
(PID.TID 0000.0001) // CMAX =         -4.500020019531250E+03
(PID.TID 0000.0001) // CINT =          1.851108579282407E+01
(PID.TID 0000.0001) // SYMBOLS (CMIN->CMAX): -abcdefghijklmnopqrstuvwxyz+
(PID.TID 0000.0001) //                  0.0: .
(PID.TID 0000.0001) // RANGE I (Lo:Hi:Step):(    -1:   250:     1)
(PID.TID 0000.0001) // RANGE J (Lo:Hi:Step):(   250:    -1:    -1)
(PID.TID 0000.0001) // RANGE K (Lo:Hi:Step):(   1:   1:   1)
(PID.TID 0000.0001) // =======================================================
(PID.TID 0000.0001) K =   1
(PID.TID 0000.0001) //                I=8       I=18      I=28      I=38      I=48      I=58      I=68      I=78      I=88      I=98      I=108     I=118     I=128     I=138     I=148     I=158     I=168     I=178     I=188     I=198     I=208     I=218     I=228     I=238     I=248
(PID.TID 0000.0001) // |--J--|101234567|901234567|901234567|901234567|901234567|901234567|901234567|901234567|901234567|901234567|901234567|901234567|901234567|901234567|901234567|901234567|901234567|901234567|901234567|901234567|901234567|901234567|901234567|901234567|901234567|90
(PID.TID 0000.0001) //    250 -..------------------------------------------------------------------------------------------------------------------aaaaaaaaaaaaaaaaaa------------------------------------------------------------------------------------------------------------------..-
(PID.TID 0000.0001) //    249 ............................................................................................................................................................................................................................................................
(PID.TID 0000.0001) //    248 ............................................................................................................................................................................................................................................................
(PID.TID 0000.0001) //    247 -..------------------------------------------------------------------------------------------------------------------aaaaaaaaaaaaaaaaaa------------------------------------------------------------------------------------------------------------------..-
(PID.TID 0000.0001) //    246 -..-------------------------------------------------aaaaaaaaaaaaaaaaaaaaaaaaaaaaaaaaaaaaaaaaaaaaaaaaaaaaaaaaaaaaaaaaaaaaaaaaaaaaaaaaaaaaaaaaaaaaaaaaaaaaaaaaaaaaaaaaaaaaaaaaaaaaaaaaaaaaaaaaaaaaaaaaaaaa-------------------------------------------------..-
(PID.TID 0000.0001) //    245 -..----------------------------------aaaaaaaaaaaaaaaaaaaaaaaaaaaaaaaaaaaaaaaaaaaaaaaaaaaaaaaaaaaaaaaaaaaaaaaaaaaaaaaaaaaaaaaaaaaaaaaaaaaaaaaaaaaaaaaaaaaaaaaaaaaaaaaaaaaaaaaaaaaaaaaaaaaaaaaaaaaaaaaaaaaaaaaaaaaaaaaaaa----------------------------------..-
(PID.TID 0000.0001) //    244 -..--------------------------aaaaaaaaaaaaaaaaaaaaaaaaaaaaaaaaaaaaaaaaaaaaaaaaaaaaaaaaaaaaaaaaaaaaaaaaaaaaaaaaaabbbbbbbbbbbbbbbbbbbbbbbbbbbbbbaaaaaaaaaaaaaaaaaaaaaaaaaaaaaaaaaaaaaaaaaaaaaaaaaaaaaaaaaaaaaaaaaaaaaaaaaaaaaaaaaa--------------------------..-
(PID.TID 0000.0001) //    243 -..---------------------aaaaaaaaaaaaaaaaaaaaaaaaaaaaaaaaaaaaaaaaaaaaaaaaaaaabbbbbbbbbbbbbbbbbbbbbbbbbbbbbbbbbbbbbbbbbbbbbbbbbbbbbbbbbbbbbbbbbbbbbbbbbbbbbbbbbbbbbbbbbbbbbbbbbbbbaaaaaaaaaaaaaaaaaaaaaaaaaaaaaaaaaaaaaaaaaaaaaaaaaaaa---------------------..-
(PID.TID 0000.0001) //    242 -..-----------------aaaaaaaaaaaaaaaaaaaaaaaaaaaaaaaaaaaaaaaaabbbbbbbbbbbbbbbbbbbbbbbbbbbbbbbbbbbbbbbbbbbbbbbbbbbbbbbbbbbbbbbbbbbbbbbbbbbbbbbbbbbbbbbbbbbbbbbbbbbbbbbbbbbbbbbbbbbbbbbbbbbbbbbbbbaaaaaaaaaaaaaaaaaaaaaaaaaaaaaaaaaaaaaaaaa-----------------..-
(PID.TID 0000.0001) //    241 -..---------------aaaaaaaaaaaaaaaaaaaaaaaaaaaaaaaaaabbbbbbbbbbbbbbbbbbbbbbbbbbbbbbbbbbbbbbbbbbbbbbbbbbbbbbbbbbccccccccccccccccccccccccccccccccbbbbbbbbbbbbbbbbbbbbbbbbbbbbbbbbbbbbbbbbbbbbbbbbbbbbbbbbbbaaaaaaaaaaaaaaaaaaaaaaaaaaaaaaaaaa---------------..-
(PID.TID 0000.0001) //    240 -..-------------aaaaaaaaaaaaaaaaaaaaaaaaaaaaabbbbbbbbbbbbbbbbbbbbbbbbbbbbbbbbbbbbbbbccccccccccccccccccccccccccccccccccccccccccccccccccccccccccccccccccccccccccccccccccccbbbbbbbbbbbbbbbbbbbbbbbbbbbbbbbbbbbbbbbaaaaaaaaaaaaaaaaaaaaaaaaaaaaa-------------..-
(PID.TID 0000.0001) //    239 -..-----------aaaaaaaaaaaaaaaaaaaaaaaaaabbbbbbbbbbbbbbbbbbbbbbbbbbbbbbbbccccccccccccccccccccccccccccccccccccccccccccccccccccccccccccccccccccccccccccccccccccccccccccccccccccccccccccbbbbbbbbbbbbbbbbbbbbbbbbbbbbbbbbaaaaaaaaaaaaaaaaaaaaaaaaaa-----------..-
(PID.TID 0000.0001) //    238 -..----------aaaaaaaaaaaaaaaaaaaaaaabbbbbbbbbbbbbbbbbbbbbbbbbbbcccccccccccccccccccccccccccccccccccccccccccccccddddddddddddddddddddddddddddddddcccccccccccccccccccccccccccccccccccccccccccccccbbbbbbbbbbbbbbbbbbbbbbbbbbbaaaaaaaaaaaaaaaaaaaaaaa----------..-
(PID.TID 0000.0001) //    237 -..---------aaaaaaaaaaaaaaaaaaaaabbbbbbbbbbbbbbbbbbbbbbbbcccccccccccccccccccccccccccccccccddddddddddddddddddddddddddddddddddddddddddddddddddddddddddddddddddddddddcccccccccccccccccccccccccccccccccbbbbbbbbbbbbbbbbbbbbbbbbaaaaaaaaaaaaaaaaaaaaa---------..-
(PID.TID 0000.0001) //    236 -..--------aaaaaaaaaaaaaaaaaaaabbbbbbbbbbbbbbbbbbbbbccccccccccccccccccccccccccddddddddddddddddddddddddddddddddddddddddddddddddddddddddddddddddddddddddddddddddddddddddddddddddccccccccccccccccccccccccccbbbbbbbbbbbbbbbbbbbbbaaaaaaaaaaaaaaaaaaaa--------..-
(PID.TID 0000.0001) //    235 -..--------aaaaaaaaaaaaaaaaabbbbbbbbbbbbbbbbbbbbcccccccccccccccccccccccddddddddddddddddddddddddddddddddddddddddeeeeeeeeeeeeeeeeeeeeeeeeeeeeeeddddddddddddddddddddddddddddddddddddddddcccccccccccccccccccccccbbbbbbbbbbbbbbbbbbbbaaaaaaaaaaaaaaaaa--------..-
(PID.TID 0000.0001) //    234 -..-------aaaaaaaaaaaaaaaaabbbbbbbbbbbbbbbbbccccccccccccccccccccdddddddddddddddddddddddddddddeeeeeeeeeeeeeeeeeeeeeeeeeeeeeeeeeeeeeeeeeeeeeeeeeeeeeeeeeeeeeeeeeedddddddddddddddddddddddddddddccccccccccccccccccccbbbbbbbbbbbbbbbbbaaaaaaaaaaaaaaaaa-------..-
(PID.TID 0000.0001) //    233 -..-------aaaaaaaaaaaaaaabbbbbbbbbbbbbbbbcccccccccccccccccccdddddddddddddddddddddddeeeeeeeeeeeeeeeeeeeeeeeeeeeeeeeeeeeeeeeeeeeeeeeeeeeeeeeeeeeeeeeeeeeeeeeeeeeeeeeeeeeeeedddddddddddddddddddddddcccccccccccccccccccbbbbbbbbbbbbbbbbaaaaaaaaaaaaaaa-------..-
(PID.TID 0000.0001) //    232 -..------aaaaaaaaaaaaaaabbbbbbbbbbbbbbbccccccccccccccccdddddddddddddddddddddeeeeeeeeeeeeeeeeeeeeeeeeeeeeeeeeeeeffffffffffffffffffffffffffffffeeeeeeeeeeeeeeeeeeeeeeeeeeeeeeeeeeedddddddddddddddddddddccccccccccccccccbbbbbbbbbbbbbbbaaaaaaaaaaaaaaa------..-
(PID.TID 0000.0001) //    231 -..------aaaaaaaaaaaaabbbbbbbbbbbbbbccccccccccccccccddddddddddddddddddeeeeeeeeeeeeeeeeeeeeeeeeeeffffffffffffffffffffffffffffffffffffffffffffffffffffffffffffeeeeeeeeeeeeeeeeeeeeeeeeeeddddddddddddddddddccccccccccccccccbbbbbbbbbbbbbbaaaaaaaaaaaaa------..-
(PID.TID 0000.0001) //    230 -..-----aaaaaaaaaaaaabbbbbbbbbbbbbcccccccccccccccddddddddddddddddeeeeeeeeeeeeeeeeeeeeeeffffffffffffffffffffffffffffffffffffffffffffffffffffffffffffffffffffffffffffffeeeeeeeeeeeeeeeeeeeeeeddddddddddddddddcccccccccccccccbbbbbbbbbbbbbaaaaaaaaaaaaa-----..-
(PID.TID 0000.0001) //    229 -..-----aaaaaaaaaaaabbbbbbbbbbbbbcccccccccccccdddddddddddddddeeeeeeeeeeeeeeeeeeefffffffffffffffffffffffffffffffffggggggggggggggggggggggggggfffffffffffffffffffffffffffffffffeeeeeeeeeeeeeeeeeeedddddddddddddddcccccccccccccbbbbbbbbbbbbbaaaaaaaaaaaa-----..-
(PID.TID 0000.0001) //    228 -..-----aaaaaaaaaaabbbbbbbbbbbbcccccccccccccddddddddddddddeeeeeeeeeeeeeeeeffffffffffffffffffffffffggggggggggggggggggggggggggggggggggggggggggggggggggggggggffffffffffffffffffffffffeeeeeeeeeeeeeeeeddddddddddddddcccccccccccccbbbbbbbbbbbbaaaaaaaaaaa-----..-
(PID.TID 0000.0001) //    227 -..-----aaaaaaaaaaabbbbbbbbbbbccccccccccccdddddddddddddeeeeeeeeeeeeeeeffffffffffffffffffffggggggggggggggggggggggggggggggggggggggggggggggggggggggggggggggggggggggggffffffffffffffffffffeeeeeeeeeeeeeeedddddddddddddccccccccccccbbbbbbbbbbbaaaaaaaaaaa-----..-
(PID.TID 0000.0001) //    226 -..----aaaaaaaaaaabbbbbbbbbbbcccccccccccddddddddddddeeeeeeeeeeeeeefffffffffffffffffggggggggggggggggggggggggggggggghhhhhhhhhhhhhhhhhhhhhhhhgggggggggggggggggggggggggggggggfffffffffffffffffeeeeeeeeeeeeeeddddddddddddcccccccccccbbbbbbbbbbbaaaaaaaaaaa----..-
(PID.TID 0000.0001) //    225 -..----aaaaaaaaaabbbbbbbbbbcccccccccccddddddddddddeeeeeeeeeeeeefffffffffffffffgggggggggggggggggggggghhhhhhhhhhhhhhhhhhhhhhhhhhhhhhhhhhhhhhhhhhhhhhhhhhhhggggggggggggggggggggggfffffffffffffffeeeeeeeeeeeeeddddddddddddcccccccccccbbbbbbbbbbaaaaaaaaaa----..-
(PID.TID 0000.0001) //    224 -..----aaaaaaaaaabbbbbbbbbcccccccccccdddddddddddeeeeeeeeeeeeffffffffffffffgggggggggggggggggghhhhhhhhhhhhhhhhhhhhhhhhhhhhhhhhhhhhhhhhhhhhhhhhhhhhhhhhhhhhhhhhhhhhggggggggggggggggggffffffffffffffeeeeeeeeeeeedddddddddddcccccccccccbbbbbbbbbaaaaaaaaaa----..-
(PID.TID 0000.0001) //    223 -..----aaaaaaaaabbbbbbbbbccccccccccdddddddddddeeeeeeeeeeefffffffffffffgggggggggggggggghhhhhhhhhhhhhhhhhhhhhhhhhhhhhhiiiiiiiiiiiiiiiiiiiihhhhhhhhhhhhhhhhhhhhhhhhhhhhhhggggggggggggggggfffffffffffffeeeeeeeeeeedddddddddddccccccccccbbbbbbbbbaaaaaaaaa----..-
(PID.TID 0000.0001) //    222 -..----aaaaaaaabbbbbbbbbbcccccccccddddddddddeeeeeeeeeeeffffffffffffgggggggggggggghhhhhhhhhhhhhhhhhhhhhhiiiiiiiiiiiiiiiiiiiiiiiiiiiiiiiiiiiiiiiiiiiiiihhhhhhhhhhhhhhhhhhhhhhggggggggggggggffffffffffffeeeeeeeeeeeddddddddddcccccccccbbbbbbbbbbaaaaaaaa----..-
(PID.TID 0000.0001) //    221 -..---aaaaaaaaabbbbbbbbbcccccccccdddddddddeeeeeeeeeeefffffffffffggggggggggggghhhhhhhhhhhhhhhhhhiiiiiiiiiiiiiiiiiiiiiiiiiiiiiiiiiiiiiiiiiiiiiiiiiiiiiiiiiiiiiihhhhhhhhhhhhhhhhhhgggggggggggggfffffffffffeeeeeeeeeeedddddddddcccccccccbbbbbbbbbaaaaaaaaa---..-
(PID.TID 0000.0001) //    220 -..---aaaaaaaaabbbbbbbbcccccccccdddddddddeeeeeeeeeeffffffffffggggggggggggghhhhhhhhhhhhhhhiiiiiiiiiiiiiiiiiiiiiiiiiiiiiiijjjjjjjjjjjjiiiiiiiiiiiiiiiiiiiiiiiiiiiiiiihhhhhhhhhhhhhhhgggggggggggggffffffffffeeeeeeeeeedddddddddcccccccccbbbbbbbbaaaaaaaaa---..-
(PID.TID 0000.0001) //    219 -..---aaaaaaaabbbbbbbbcccccccccddddddddeeeeeeeeeeffffffffffggggggggggghhhhhhhhhhhhhhiiiiiiiiiiiiiiiiiiiiijjjjjjjjjjjjjjjjjjjjjjjjjjjjjjjjjjjjjjjjjjiiiiiiiiiiiiiiiiiiiiihhhhhhhhhhhhhhgggggggggggffffffffffeeeeeeeeeeddddddddcccccccccbbbbbbbbaaaaaaaa---..-
(PID.TID 0000.0001) //    218 -..---aaaaaaaabbbbbbbbccccccccddddddddeeeeeeeeeffffffffffggggggggggghhhhhhhhhhhhiiiiiiiiiiiiiiiiijjjjjjjjjjjjjjjjjjjjjjjjjjjjjjjjjjjjjjjjjjjjjjjjjjjjjjjjjjiiiiiiiiiiiiiiiiihhhhhhhhhhhhgggggggggggffffffffffeeeeeeeeeddddddddccccccccbbbbbbbbaaaaaaaa---..-
(PID.TID 0000.0001) //    217 -..---aaaaaaabbbbbbbbccccccccddddddddeeeeeeeeefffffffffgggggggggghhhhhhhhhhhhiiiiiiiiiiiiiiijjjjjjjjjjjjjjjjjjjjjjjjjjjjjjjjjjjjjjjjjjjjjjjjjjjjjjjjjjjjjjjjjjjjiiiiiiiiiiiiiiihhhhhhhhhhhhggggggggggfffffffffeeeeeeeeeddddddddccccccccbbbbbbbbaaaaaaa---..-
(PID.TID 0000.0001) //    216 -..---aaaaaaabbbbbbbccccccccddddddddeeeeeeeefffffffffgggggggggghhhhhhhhhhhiiiiiiiiiiiiijjjjjjjjjjjjjjjjjjjjkkkkkkkkkkkkkkkkkkkkkkkkkkkkkkkkkkkkkkjjjjjjjjjjjjjjjjjjjjiiiiiiiiiiiiihhhhhhhhhhhggggggggggfffffffffeeeeeeeeddddddddccccccccbbbbbbbaaaaaaa---..-
(PID.TID 0000.0001) //    215 -..---aaaaaaabbbbbbbcccccccddddddddeeeeeeeeffffffffgggggggggghhhhhhhhhhiiiiiiiiiiiijjjjjjjjjjjjjjjjjkkkkkkkkkkkkkkkkkkkkkkkkkkkkkkkkkkkkkkkkkkkkkkkkkkkkjjjjjjjjjjjjjjjjjiiiiiiiiiiiihhhhhhhhhhggggggggggffffffffeeeeeeeeddddddddcccccccbbbbbbbaaaaaaa---..-
(PID.TID 0000.0001) //    214 -..---aaaaaabbbbbbbccccccccdddddddeeeeeeeeffffffffggggggggghhhhhhhhhiiiiiiiiiiiijjjjjjjjjjjjjjkkkkkkkkkkkkkkkkkkkkkkkkkkkkkkkkkkkkkkkkkkkkkkkkkkkkkkkkkkkkkkkkjjjjjjjjjjjjjjiiiiiiiiiiiihhhhhhhhhgggggggggffffffffeeeeeeeedddddddccccccccbbbbbbbaaaaaa---..-
(PID.TID 0000.0001) //    213 -..--aaaaaaabbbbbbbcccccccdddddddeeeeeeeefffffffggggggggghhhhhhhhhiiiiiiiiiiijjjjjjjjjjjjjkkkkkkkkkkkkkkkkkkkkllllllllllllllllllllllllllllllllkkkkkkkkkkkkkkkkkkkkjjjjjjjjjjjjjiiiiiiiiiiihhhhhhhhhgggggggggfffffffeeeeeeeedddddddcccccccbbbbbbbaaaaaaa--..-
(PID.TID 0000.0001) //    212 -..--aaaaaaabbbbbbbccccccdddddddeeeeeeeffffffffgggggggghhhhhhhhhiiiiiiiiiijjjjjjjjjjjjkkkkkkkkkkkkkkkkllllllllllllllllllllllllllllllllllllllllllllllllkkkkkkkkkkkkkkkkjjjjjjjjjjjjiiiiiiiiiihhhhhhhhhggggggggffffffffeeeeeeedddddddccccccbbbbbbbaaaaaaa--..-
(PID.TID 0000.0001) //    211 -..--aaaaaaabbbbbbcccccccddddddeeeeeeeffffffffgggggggghhhhhhhhiiiiiiiiijjjjjjjjjjjkkkkkkkkkkkkkkkllllllllllllllllllllllllllllllllllllllllllllllllllllllllllkkkkkkkkkkkkkkkjjjjjjjjjjjiiiiiiiiihhhhhhhhggggggggffffffffeeeeeeeddddddcccccccbbbbbbaaaaaaa--..-
(PID.TID 0000.0001) //    210 -..--aaaaaabbbbbbbccccccdddddddeeeeeeefffffffggggggghhhhhhhhiiiiiiiiijjjjjjjjjjkkkkkkkkkkkkkllllllllllllllllllllllmmmmmmmmmmmmmmmmmmmmmmmmllllllllllllllllllllllkkkkkkkkkkkkkjjjjjjjjjjiiiiiiiiihhhhhhhhgggggggfffffffeeeeeeedddddddccccccbbbbbbbaaaaaa--..-
(PID.TID 0000.0001) //    209 -..--aaaaaabbbbbbcccccccddddddeeeeeeefffffffggggggghhhhhhhhiiiiiiiijjjjjjjjjjkkkkkkkkkkklllllllllllllllllmmmmmmmmmmmmmmmmmmmmmmmmmmmmmmmmmmmmmmmmmmlllllllllllllllllkkkkkkkkkkkjjjjjjjjjjiiiiiiiihhhhhhhhgggggggfffffffeeeeeeeddddddcccccccbbbbbbaaaaaa--..-
(PID.TID 0000.0001) //    208 -..--aaaaaabbbbbbccccccddddddeeeeeeefffffffggggggghhhhhhhiiiiiiiijjjjjjjjjkkkkkkkkkkkllllllllllllllmmmmmmmmmmmmmmmmmmmmmmmmmmmmmmmmmmmmmmmmmmmmmmmmmmmmmmllllllllllllllkkkkkkkkkkkjjjjjjjjjiiiiiiiihhhhhhhgggggggfffffffeeeeeeeddddddccccccbbbbbbaaaaaa--..-
(PID.TID 0000.0001) //    207 -..--aaaaaabbbbbbccccccddddddeeeeeefffffffgggggghhhhhhhhiiiiiiijjjjjjjjjkkkkkkkkkklllllllllllllmmmmmmmmmmmmmmmmmmmmmmmmmnnnnnnnnnnnnmmmmmmmmmmmmmmmmmmmmmmmmmlllllllllllllkkkkkkkkkkjjjjjjjjjiiiiiiihhhhhhhhggggggfffffffeeeeeeddddddccccccbbbbbbaaaaaa--..-
(PID.TID 0000.0001) //    206 -..--aaaaaabbbbbccccccddddddeeeeeefffffffgggggghhhhhhhiiiiiiiijjjjjjjjkkkkkkkkkllllllllllllmmmmmmmmmmmmmmmmmnnnnnnnnnnnnnnnnnnnnnnnnnnnnnnnnnnnnmmmmmmmmmmmmmmmmmllllllllllllkkkkkkkkkjjjjjjjjiiiiiiiihhhhhhhggggggfffffffeeeeeeddddddccccccbbbbbaaaaaa--..-
(PID.TID 0000.0001) //    205 -..--aaaaabbbbbbccccccddddddeeeeeeffffffgggggghhhhhhhiiiiiiijjjjjjjjkkkkkkkkklllllllllllmmmmmmmmmmmmmmnnnnnnnnnnnnnnnnnnnnnnnnnnnnnnnnnnnnnnnnnnnnnnnnmmmmmmmmmmmmmmlllllllllllkkkkkkkkkjjjjjjjjiiiiiiihhhhhhhggggggffffffeeeeeeddddddccccccbbbbbbaaaaa--..-
(PID.TID 0000.0001) //    204 -..--aaaaabbbbbbcccccddddddeeeeeeffffffgggggghhhhhhhiiiiiiijjjjjjjkkkkkkkkkllllllllllmmmmmmmmmmmmmnnnnnnnnnnnnnnnnnnnnnnnnnnnnnnnnnnnnnnnnnnnnnnnnnnnnnnnnmmmmmmmmmmmmmllllllllllkkkkkkkkkjjjjjjjiiiiiiihhhhhhhggggggffffffeeeeeeddddddcccccbbbbbbaaaaa--..-
(PID.TID 0000.0001) //    203 -..--aaaaabbbbbbcccccddddddeeeeeffffffgggggghhhhhhhiiiiiijjjjjjjjkkkkkkkklllllllllmmmmmmmmmmmmnnnnnnnnnnnnnnnnnnnoooooooooooooooooooooooooonnnnnnnnnnnnnnnnnnnmmmmmmmmmmmmlllllllllkkkkkkkkjjjjjjjjiiiiiihhhhhhhggggggffffffeeeeeddddddcccccbbbbbbaaaaa--..-
(PID.TID 0000.0001) //    202 -..--aaaaabbbbbccccccdddddeeeeeefffffgggggghhhhhhhiiiiiijjjjjjjkkkkkkkklllllllllmmmmmmmmmmnnnnnnnnnnnnnnnnoooooooooooooooooooooooooooooooooooooooonnnnnnnnnnnnnnnnmmmmmmmmmmlllllllllkkkkkkkkjjjjjjjiiiiiihhhhhhhggggggfffffeeeeeedddddccccccbbbbbaaaaa--..-
(PID.TID 0000.0001) //    201 -..--aaaaabbbbbcccccddddddeeeeeffffffgggggghhhhhhiiiiiijjjjjjjkkkkkkklllllllllmmmmmmmmmmnnnnnnnnnnnnnoooooooooooooooooooooooooooooooooooooooooooooooooonnnnnnnnnnnnnmmmmmmmmmmlllllllllkkkkkkkjjjjjjjiiiiiihhhhhhggggggffffffeeeeeddddddcccccbbbbbaaaaa--..-
(PID.TID 0000.0001) //    200 -..--aaaaabbbbbcccccdddddeeeeeefffffgggggghhhhhhiiiiiijjjjjjkkkkkkkkllllllllmmmmmmmmmnnnnnnnnnnnnooooooooooooooooooooooppppppppppppppoooooooooooooooooooooonnnnnnnnnnnnmmmmmmmmmllllllllkkkkkkkkjjjjjjiiiiiihhhhhhggggggfffffeeeeeedddddcccccbbbbbaaaaa--..-
(PID.TID 0000.0001) //    199 -..--aaaaabbbbbcccccdddddeeeeefffffgggggghhhhhhiiiiiijjjjjjkkkkkkkllllllllmmmmmmmmmnnnnnnnnnnoooooooooooooooooppppppppppppppppppppppppppppppppooooooooooooooooonnnnnnnnnnmmmmmmmmmllllllllkkkkkkkjjjjjjiiiiiihhhhhhggggggfffffeeeeedddddcccccbbbbbaaaaa--..-
(PID.TID 0000.0001) //    198 -..-aaaaabbbbbcccccdddddeeeeeefffffggggghhhhhhiiiiiijjjjjjkkkkkkklllllllmmmmmmmmnnnnnnnnnnooooooooooooooppppppppppppppppppppppppppppppppppppppppppppoooooooooooooonnnnnnnnnnmmmmmmmmlllllllkkkkkkkjjjjjjiiiiiihhhhhhgggggfffffeeeeeedddddcccccbbbbbaaaaa-..-
(PID.TID 0000.0001) //    197 -..-aaaaabbbbbcccccdddddeeeeefffffgggggghhhhhiiiiiijjjjjjkkkkkkllllllllmmmmmmmnnnnnnnnnnooooooooooooppppppppppppppppppppppppppppppppppppppppppppppppppppoooooooooooonnnnnnnnnnmmmmmmmllllllllkkkkkkjjjjjjiiiiiihhhhhggggggfffffeeeeedddddcccccbbbbbaaaaa-..-
(PID.TID 0000.0001) //    196 -..-aaaaabbbbbcccccdddddeeeeefffffggggghhhhhiiiiiijjjjjjkkkkkklllllllmmmmmmmmnnnnnnnnooooooooooopppppppppppppppppppqqqqqqqqqqqqqqqqqqqqqqpppppppppppppppppppooooooooooonnnnnnnnmmmmmmmmlllllllkkkkkkjjjjjjiiiiiihhhhhgggggfffffeeeeedddddcccccbbbbbaaaaa-..-
(PID.TID 0000.0001) //    195 -..-aaaaabbbbbccccdddddeeeeefffffggggghhhhhhiiiiijjjjjjkkkkkklllllllmmmmmmmnnnnnnnnoooooooooopppppppppppppppqqqqqqqqqqqqqqqqqqqqqqqqqqqqqqqqqqqqpppppppppppppppoooooooooonnnnnnnnmmmmmmmlllllllkkkkkkjjjjjjiiiiihhhhhhgggggfffffeeeeedddddccccbbbbbaaaaa-..-
(PID.TID 0000.0001) //    194 -..-aaaaabbbbbccccdddddeeeeefffffggggghhhhhiiiiijjjjjjkkkkkkllllllmmmmmmmnnnnnnnnoooooooooopppppppppppppqqqqqqqqqqqqqqqqqqqqqqqqqqqqqqqqqqqqqqqqqqqqpppppppppppppoooooooooonnnnnnnnmmmmmmmllllllkkkkkkjjjjjjiiiiihhhhhgggggfffffeeeeedddddccccbbbbbaaaaa-..-
(PID.TID 0000.0001) //    193 -..-aaaaabbbbcccccdddddeeeefffffggggghhhhhiiiiijjjjjjkkkkkkllllllmmmmmmmnnnnnnnoooooooooppppppppppppqqqqqqqqqqqqqqqqqqqqqqqqqqqqqqqqqqqqqqqqqqqqqqqqqqqqppppppppppppooooooooonnnnnnnmmmmmmmllllllkkkkkkjjjjjjiiiiihhhhhgggggfffffeeeedddddcccccbbbbaaaaa-..-
(PID.TID 0000.0001) //    192 -..-aaaaabbbbcccccddddeeeeefffffggggghhhhhiiiiijjjjjkkkkkkllllllmmmmmmnnnnnnnnoooooooopppppppppppqqqqqqqqqqqqqqqqqrrrrrrrrrrrrrrrrrrrrrrrrqqqqqqqqqqqqqqqqqpppppppppppoooooooonnnnnnnnmmmmmmllllllkkkkkkjjjjjiiiiihhhhhgggggfffffeeeeeddddcccccbbbbaaaaa-..-
(PID.TID 0000.0001) //    191 -..-aaaaabbbbcccccddddeeeeeffffggggghhhhhiiiiijjjjjkkkkkkllllllmmmmmmnnnnnnnooooooooppppppppppqqqqqqqqqqqqqqrrrrrrrrrrrrrrrrrrrrrrrrrrrrrrrrrrrrqqqqqqqqqqqqqqppppppppppoooooooonnnnnnnmmmmmmllllllkkkkkkjjjjjiiiiihhhhhgggggffffeeeeeddddcccccbbbbaaaaa-..-
(PID.TID 0000.0001) //    190 -..-aaaaabbbbccccdddddeeeefffffggggghhhhiiiiijjjjjkkkkkkllllllmmmmmmnnnnnnnooooooopppppppppqqqqqqqqqqqqqrrrrrrrrrrrrrrrrrrrrrrrrrrrrrrrrrrrrrrrrrrrrqqqqqqqqqqqqqpppppppppooooooonnnnnnnmmmmmmllllllkkkkkkjjjjjiiiiihhhhgggggfffffeeeedddddccccbbbbaaaaa-..-
(PID.TID 0000.0001) //    189 -..-aaaabbbbbccccddddeeeeeffffggggghhhhhiiiiijjjjjkkkkkllllllmmmmmmnnnnnnooooooooppppppppqqqqqqqqqqqrrrrrrrrrrrrrrrrrrrrrrrrrrrrrrrrrrrrrrrrrrrrrrrrrrrrqqqqqqqqqqqppppppppoooooooonnnnnnmmmmmmllllllkkkkkjjjjjiiiiihhhhhgggggffffeeeeeddddccccbbbbbaaaa-..-
(PID.TID 0000.0001) //    188 -..-aaaabbbbbccccddddeeeeeffffggggghhhhiiiiijjjjjkkkkkllllllmmmmmmnnnnnnoooooooppppppppqqqqqqqqqqrrrrrrrrrrrrrrrrrssssssssssssssssssssssssrrrrrrrrrrrrrrrrrqqqqqqqqqqppppppppooooooonnnnnnmmmmmmllllllkkkkkjjjjjiiiiihhhhgggggffffeeeeeddddccccbbbbbaaaa-..-
(PID.TID 0000.0001) //    187 -..-aaaabbbbcccccddddeeeefffffgggghhhhhiiiijjjjjkkkkkllllllmmmmmmnnnnnnooooooopppppppqqqqqqqqqqrrrrrrrrrrrrrssssssssssssssssssssssssssssssssssssrrrrrrrrrrrrrqqqqqqqqqqpppppppooooooonnnnnnmmmmmmllllllkkkkkjjjjjiiiihhhhhggggfffffeeeeddddcccccbbbbaaaa-..-
(PID.TID 0000.0001) //    186 -..-aaaabbbbccccdddddeeeeffffggggghhhhiiiiijjjjjkkkkklllllmmmmmmnnnnnnooooooppppppppqqqqqqqqrrrrrrrrrrrrssssssssssssssssssssssssssssssssssssssssssssrrrrrrrrrrrrqqqqqqqqppppppppoooooonnnnnnmmmmmmlllllkkkkkjjjjjiiiiihhhhgggggffffeeeedddddccccbbbbaaaa-..-
(PID.TID 0000.0001) //    185 -..-aaaabbbbccccddddeeeeeffffgggghhhhhiiiijjjjjkkkkklllllmmmmmmnnnnnooooooopppppppqqqqqqqqrrrrrrrrrrrssssssssssssssssssssssssssssssssssssssssssssssssssrrrrrrrrrrrqqqqqqqqpppppppooooooonnnnnmmmmmmlllllkkkkkjjjjjiiiihhhhhggggffffeeeeeddddccccbbbbaaaa-..-
(PID.TID 0000.0001) //    184 -..-aaaabbbbccccddddeeeefffffgggghhhhiiiiijjjjkkkkklllllmmmmmmnnnnnoooooooppppppqqqqqqqqrrrrrrrrrrsssssssssssssssssttttttttttttttttttttttsssssssssssssssssrrrrrrrrrrqqqqqqqqppppppooooooonnnnnmmmmmmlllllkkkkkjjjjiiiiihhhhggggfffffeeeeddddccccbbbbaaaa-..-
(PID.TID 0000.0001) //    183 -..-aaaabbbbccccddddeeeeffffggggghhhhiiiijjjjjkkkkklllllmmmmmnnnnnoooooopppppppqqqqqqqqrrrrrrrrrssssssssssssssttttttttttttttttttttttttttttttttssssssssssssssrrrrrrrrrqqqqqqqqpppppppoooooonnnnnmmmmmlllllkkkkkjjjjjiiiihhhhgggggffffeeeeddddccccbbbbaaaa-..-
(PID.TID 0000.0001) //    182 -..-aaaabbbbccccddddeeeeffffgggghhhhiiiiijjjjkkkkklllllmmmmmnnnnnoooooopppppppqqqqqqqrrrrrrrrrssssssssssssttttttttttttttttttttttttttttttttttttttttssssssssssssrrrrrrrrrqqqqqqqpppppppoooooonnnnnmmmmmlllllkkkkkjjjjiiiiihhhhggggffffeeeeddddccccbbbbaaaa-..-
(PID.TID 0000.0001) //    181 -..-aaaabbbbccccddddeeeeffffgggghhhhiiiijjjjjkkkklllllmmmmmnnnnnnooooopppppppqqqqqqqrrrrrrrrsssssssssssttttttttttttttttttttttttttttttttttttttttttttttsssssssssssrrrrrrrrqqqqqqqpppppppooooonnnnnnmmmmmlllllkkkkjjjjjiiiihhhhggggffffeeeeddddccccbbbbaaaa-..-
(PID.TID 0000.0001) //    180 -..-aaaabbbbccccdddeeeeffffgggghhhhhiiiijjjjkkkkklllllmmmmnnnnnnoooooppppppqqqqqqqrrrrrrrrssssssssssttttttttttttttttttuuuuuuuuuuuuuuuuttttttttttttttttttssssssssssrrrrrrrrqqqqqqqppppppooooonnnnnnmmmmlllllkkkkkjjjjiiiihhhhhggggffffeeeedddccccbbbbaaaa-..-
(PID.TID 0000.0001) //    179 -..-aaaabbbbcccddddeeeeffffgggghhhhiiiijjjjjkkkklllllmmmmmnnnnnoooooppppppqqqqqqqrrrrrrrssssssssssttttttttttttttuuuuuuuuuuuuuuuuuuuuuuuuuuuuttttttttttttttssssssssssrrrrrrrqqqqqqqppppppooooonnnnnmmmmmlllllkkkkjjjjjiiiihhhhggggffffeeeeddddcccbbbbaaaa-..-
(PID.TID 0000.0001) //    178 -..-aaaabbbccccddddeeeeffffgggghhhhiiiijjjjkkkkkllllmmmmmnnnnnoooooppppppqqqqqqqrrrrrrrsssssssssttttttttttttuuuuuuuuuuuuuuuuuuuuuuuuuuuuuuuuuuuuttttttttttttsssssssssrrrrrrrqqqqqqqppppppooooonnnnnmmmmmllllkkkkkjjjjiiiihhhhggggffffeeeeddddccccbbbaaaa-..-
(PID.TID 0000.0001) //    177 -..-aaaabbbccccddddeeeeffffgggghhhhiiiijjjjkkkklllllmmmmnnnnnoooooopppppqqqqqqrrrrrrrssssssssstttttttttttuuuuuuuuuuuuuuuuuuuuuuuuuuuuuuuuuuuuuuuuuutttttttttttsssssssssrrrrrrrqqqqqqpppppoooooonnnnnmmmmlllllkkkkjjjjiiiihhhhggggffffeeeeddddccccbbbaaaa-..-
(PID.TID 0000.0001) //    176 -..-aaaabbbccccddddeeeffffgggghhhhiiiijjjjkkkkkllllmmmmmnnnnnooooopppppqqqqqqrrrrrrrssssssssttttttttttuuuuuuuuuuuuuuuuuuuuuuuuuuuuuuuuuuuuuuuuuuuuuuuuttttttttttssssssssrrrrrrrqqqqqqpppppooooonnnnnmmmmmllllkkkkkjjjjiiiihhhhggggffffeeeddddccccbbbaaaa-..-
(PID.TID 0000.0001) //    175 -..-aaaabbbccccddddeeeffffgggghhhhiiiijjjjkkkklllllmmmmnnnnnooooopppppqqqqqqrrrrrrrsssssssttttttttttuuuuuuuuuuuuuuuuvvvvvvvvvvvvvvvvvvvvuuuuuuuuuuuuuuuuttttttttttsssssssrrrrrrrqqqqqqpppppooooonnnnnmmmmlllllkkkkjjjjiiiihhhhggggffffeeeddddccccbbbaaaa-..-
(PID.TID 0000.0001) //    174 -..-aaabbbbccccdddeeeeffffgggghhhhiiiijjjjkkkkllllmmmmmnnnnoooooppppppqqqqqrrrrrrrssssssstttttttttuuuuuuuuuuuuuuvvvvvvvvvvvvvvvvvvvvvvvvvvvvuuuuuuuuuuuuuutttttttttsssssssrrrrrrrqqqqqppppppooooonnnnmmmmmllllkkkkjjjjiiiihhhhggggffffeeeedddccccbbbbaaa-..-
(PID.TID 0000.0001) //    173 -..-aaabbbbccccdddeeeeffffggghhhhiiiijjjjkkkklllllmmmmnnnnnooooopppppqqqqqrrrrrrrsssssssttttttttuuuuuuuuuuuuvvvvvvvvvvvvvvvvvvvvvvvvvvvvvvvvvvvvuuuuuuuuuuuuttttttttsssssssrrrrrrrqqqqqpppppooooonnnnnmmmmlllllkkkkjjjjiiiihhhhgggffffeeeedddccccbbbbaaa-..-
(PID.TID 0000.0001) //    172 -..-aaabbbbcccddddeeeefffgggghhhhiiiijjjjkkkkllllmmmmnnnnnooooopppppqqqqqrrrrrrsssssssttttttttuuuuuuuuuuuvvvvvvvvvvvvvvvvvvvvvvvvvvvvvvvvvvvvvvvvvvuuuuuuuuuuuttttttttsssssssrrrrrrqqqqqpppppooooonnnnnmmmmllllkkkkjjjjiiiihhhhggggfffeeeeddddcccbbbbaaa-..-
(PID.TID 0000.0001) //    171 -..-aaabbbbcccddddeeeefffgggghhhhiiiijjjkkkklllllmmmmnnnnooooopppppqqqqqqrrrrrsssssssttttttttuuuuuuuuuuvvvvvvvvvvvvvvvvvvvvvvvvvvvvvvvvvvvvvvvvvvvvvvuuuuuuuuuuttttttttsssssssrrrrrqqqqqqpppppooooonnnnmmmmlllllkkkkjjjiiiihhhhggggfffeeeeddddcccbbbbaaa-..-
(PID.TID 0000.0001) //    170 -..-aaabbbbcccddddeeeffffgggghhhiiiijjjjkkkkllllmmmmnnnnnoooooppppqqqqqqrrrrrrsssssstttttttuuuuuuuuuuvvvvvvvvvvvvvvvvwwwwwwwwwwwwwwwwwwvvvvvvvvvvvvvvvvuuuuuuuuuutttttttssssssrrrrrrqqqqqqppppooooonnnnnmmmmllllkkkkjjjjiiiihhhggggffffeeeddddcccbbbbaaa-..-
(PID.TID 0000.0001) //    169 -..-aaabbbbcccddddeeeffffggghhhhiiiijjjjkkkkllllmmmmnnnnooooopppppqqqqqrrrrrrsssssstttttttuuuuuuuuuvvvvvvvvvvvvvvwwwwwwwwwwwwwwwwwwwwwwwwwwvvvvvvvvvvvvvvuuuuuuuuutttttttssssssrrrrrrqqqqqpppppooooonnnnmmmmllllkkkkjjjjiiiihhhhgggffffeeeddddcccbbbbaaa-..-
(PID.TID 0000.0001) //    168 -..-aaabbbbcccddddeeeffffggghhhhiiiijjjkkkkllllmmmmmnnnnoooopppppqqqqqrrrrrrsssssstttttttuuuuuuuuvvvvvvvvvvvvwwwwwwwwwwwwwwwwwwwwwwwwwwwwwwwwwwvvvvvvvvvvvvuuuuuuuutttttttssssssrrrrrrqqqqqpppppoooonnnnmmmmmllllkkkkjjjiiiihhhhgggffffeeeddddcccbbbbaaa-..-
(PID.TID 0000.0001) //    167 -..-aaabbbbcccdddeeeefffgggghhhhiiijjjjkkkkllllmmmmnnnnooooopppppqqqqqrrrrrsssssstttttttuuuuuuuuvvvvvvvvvvvwwwwwwwwwwwwwwwwwwwwwwwwwwwwwwwwwwwwwwvvvvvvvvvvvuuuuuuuutttttttssssssrrrrrqqqqqpppppooooonnnnmmmmllllkkkkjjjjiiihhhhggggfffeeeedddcccbbbbaaa-..-
(PID.TID 0000.0001) //    166 -..-aaabbbccccdddeeeefffgggghhhiiiijjjjkkkkllllmmmmnnnnoooopppppqqqqqrrrrrsssssstttttttuuuuuuuvvvvvvvvvvvwwwwwwwwwwwwwwwwwwwwwwwwwwwwwwwwwwwwwwwwwwvvvvvvvvvvvuuuuuuutttttttssssssrrrrrqqqqqpppppoooonnnnmmmmllllkkkkjjjjiiiihhhggggfffeeeedddccccbbbaaa-..-
(PID.TID 0000.0001) //    165 -..-aaabbbccccdddeeeefffgggghhhiiiijjjjkkkllllmmmmnnnnoooooppppqqqqqrrrrrsssssstttttttuuuuuuuvvvvvvvvvvwwwwwwwwwwwwwwwwwwwxxxxxxxxwwwwwwwwwwwwwwwwwwwvvvvvvvvvvuuuuuuutttttttssssssrrrrrqqqqqppppooooonnnnmmmmllllkkkjjjjiiiihhhggggfffeeeedddccccbbbaaa-..-
(PID.TID 0000.0001) //    164 -..-aaabbbccccdddeeeefffggghhhhiiiijjjkkkkllllmmmmnnnnoooopppppqqqqqrrrrrssssstttttttuuuuuuuvvvvvvvvvwwwwwwwwwwwwwwwxxxxxxxxxxxxxxxxxxxxwwwwwwwwwwwwwwwvvvvvvvvvuuuuuuutttttttsssssrrrrrqqqqqpppppoooonnnnmmmmllllkkkkjjjiiiihhhhgggfffeeeedddccccbbbaaa-..-
(PID.TID 0000.0001) //    163 -..-aaabbbccccdddeeeffffggghhhhiiijjjjkkkkllllmmmmnnnnooooppppqqqqqrrrrrssssssttttttuuuuuuuvvvvvvvvwwwwwwwwwwwwwxxxxxxxxxxxxxxxxxxxxxxxxxxxxwwwwwwwwwwwwwvvvvvvvvuuuuuuuttttttssssssrrrrrqqqqqppppoooonnnnmmmmllllkkkkjjjjiiihhhhgggffffeeedddccccbbbaaa-..-
(PID.TID 0000.0001) //    162 -..-aaabbbccccdddeeeffffggghhhhiiijjjjkkkllllmmmmnnnnoooopppppqqqqrrrrrssssssttttttuuuuuuuvvvvvvvvwwwwwwwwwwwwxxxxxxxxxxxxxxxxxxxxxxxxxxxxxxxxwwwwwwwwwwwwvvvvvvvvuuuuuuuttttttssssssrrrrrqqqqpppppoooonnnnmmmmllllkkkjjjjiiihhhhgggffffeeedddccccbbbaaa-..-
(PID.TID 0000.0001) //    161 -..-aaabbbccccdddeeeffffggghhhiiiijjjjkkkllllmmmmnnnnooooppppqqqqqrrrrrsssssttttttuuuuuuuvvvvvvvvwwwwwwwwwwxxxxxxxxxxxxxxxxxxxxxxxxxxxxxxxxxxxxxxwwwwwwwwwwvvvvvvvvuuuuuuuttttttsssssrrrrrqqqqqppppoooonnnnmmmmllllkkkjjjjiiiihhhgggffffeeedddccccbbbaaa-..-
(PID.TID 0000.0001) //    160 -..-aaabbbcccddddeeefffgggghhhiiiijjjkkkkllllmmmnnnnoooooppppqqqqrrrrrsssssttttttuuuuuuuvvvvvvvwwwwwwwwwwwxxxxxxxxxxxxxxxxxxxxxxxxxxxxxxxxxxxxxxxxwwwwwwwwwwwvvvvvvvuuuuuuuttttttsssssrrrrrqqqqppppooooonnnnmmmllllkkkkjjjiiiihhhggggfffeeeddddcccbbbaaa-..-
(PID.TID 0000.0001) //    159 -..-aaabbbcccddddeeefffgggghhhiiiijjjkkkklllmmmmnnnnooooppppqqqqqrrrrrssssstttttuuuuuuuvvvvvvvwwwwwwwwwwxxxxxxxxxxxxxxxxxxxxxxxxxxxxxxxxxxxxxxxxxxxxwwwwwwwwwwvvvvvvvuuuuuuutttttsssssrrrrrqqqqqppppoooonnnnmmmmlllkkkkjjjiiiihhhggggfffeeeddddcccbbbaaa-..-
(PID.TID 0000.0001) //    158 -..-aaabbbcccddddeeefffggghhhhiiijjjjkkkllllmmmmnnnnooooppppqqqqrrrrrsssssttttttuuuuuuvvvvvvvwwwwwwwwwxxxxxxxxxxxxxxxxxyyyyyyyyyyyyyyxxxxxxxxxxxxxxxxxwwwwwwwwwvvvvvvvuuuuuuttttttsssssrrrrrqqqqppppoooonnnnmmmmllllkkkjjjjiiihhhhgggfffeeeddddcccbbbaaa-..-
(PID.TID 0000.0001) //    157 -..-aaabbbcccdddeeeefffggghhhhiiijjjjkkkllllmmmmnnnoooopppppqqqqrrrrrssssstttttuuuuuuvvvvvvvwwwwwwwwwxxxxxxxxxxxxxxyyyyyyyyyyyyyyyyyyyyyyxxxxxxxxxxxxxxwwwwwwwwwvvvvvvvuuuuuutttttsssssrrrrrqqqqpppppoooonnnmmmmllllkkkjjjjiiihhhhgggfffeeeedddcccbbbaaa-..-
(PID.TID 0000.0001) //    156 -..-aaabbbcccdddeeeefffggghhhhiiijjjkkkkllllmmmnnnnooooppppqqqqqrrrrssssstttttuuuuuuvvvvvvvwwwwwwwwwxxxxxxxxxxxxyyyyyyyyyyyyyyyyyyyyyyyyyyyyxxxxxxxxxxxxwwwwwwwwwvvvvvvvuuuuuutttttsssssrrrrqqqqqppppoooonnnnmmmllllkkkkjjjiiihhhhgggfffeeeedddcccbbbaaa-..-
(PID.TID 0000.0001) //    155 -..-aaabbbcccdddeeeefffggghhhiiiijjjkkkklllmmmmnnnnooooppppqqqqrrrrrssssstttttuuuuuuvvvvvvwwwwwwwwxxxxxxxxxxxxyyyyyyyyyyyyyyyyyyyyyyyyyyyyyyyyxxxxxxxxxxxxwwwwwwwwvvvvvvuuuuuutttttsssssrrrrrqqqqppppoooonnnnmmmmlllkkkkjjjiiiihhhgggfffeeeedddcccbbbaaa-..-
(PID.TID 0000.0001) //    154 -..-aaabbbcccdddeeeffffggghhhiiiijjjkkkklllmmmmnnnnooopppppqqqqrrrrssssstttttuuuuuuvvvvvvvwwwwwwwxxxxxxxxxxxyyyyyyyyyyyyyyyyyyyyyyyyyyyyyyyyyyyyxxxxxxxxxxxwwwwwwwvvvvvvvuuuuuutttttsssssrrrrqqqqpppppooonnnnmmmmlllkkkkjjjiiiihhhgggffffeeedddcccbbbaaa-..-
(PID.TID 0000.0001) //    153 -..-aaabbbcccdddeeeffffggghhhiiijjjjkkkllllmmmmnnnooooppppqqqqrrrrrssssstttttuuuuuvvvvvvvwwwwwwwxxxxxxxxxxxyyyyyyyyyyyyyyyyyyyyyyyyyyyyyyyyyyyyyyxxxxxxxxxxxwwwwwwwvvvvvvvuuuuutttttsssssrrrrrqqqqppppoooonnnmmmmllllkkkjjjjiiihhhgggffffeeedddcccbbbaaa-..-
(PID.TID 0000.0001) //    152 -..-aaabbbcccdddeeefffgggghhhiiijjjjkkkllllmmmnnnnooooppppqqqqrrrrssssstttttuuuuuuvvvvvvwwwwwwwxxxxxxxxxxyyyyyyyyyyyyyyyyyyyyyyyyyyyyyyyyyyyyyyyyyyxxxxxxxxxxwwwwwwwvvvvvvuuuuuutttttsssssrrrrqqqqppppoooonnnnmmmllllkkkjjjjiiihhhggggfffeeedddcccbbbaaa-..-
(PID.TID 0000.0001) //    151 -..-aaabbbcccdddeeefffgggghhhiiijjjjkkklllmmmmnnnnooooppppqqqqrrrrssssstttttuuuuuvvvvvvwwwwwwwwxxxxxxxxxyyyyyyyyyyyyyyyyyyyyyyyyyyyyyyyyyyyyyyyyyyyyxxxxxxxxxwwwwwwwwvvvvvvuuuuutttttsssssrrrrqqqqppppoooonnnnmmmmlllkkkjjjjiiihhhggggfffeeedddcccbbbaaa-..-
(PID.TID 0000.0001) //    150 -..-aaabbbcccdddeeefffggghhhhiiijjjkkkklllmmmmnnnnoooppppqqqqrrrrrsssstttttuuuuuuvvvvvvwwwwwwwxxxxxxxxxyyyyyyyyyyyyyyyyzzzzzzzzzzzzzzyyyyyyyyyyyyyyyyxxxxxxxxxwwwwwwwvvvvvvuuuuuutttttssssrrrrrqqqqppppooonnnnmmmmlllkkkkjjjiiihhhhgggfffeeedddcccbbbaaa-..-
(PID.TID 0000.0001) //    149 -..-aaabbbcccdddeeefffggghhhhiiijjjkkkklllmmmmnnnooooppppqqqqrrrrssssstttttuuuuuvvvvvvwwwwwwwxxxxxxxxxyyyyyyyyyyyyyyzzzzzzzzzzzzzzzzzzzzyyyyyyyyyyyyyyxxxxxxxxxwwwwwwwvvvvvvuuuuutttttsssssrrrrqqqqppppoooonnnmmmmlllkkkkjjjiiihhhhgggfffeeedddcccbbbaaa-..-
(PID.TID 0000.0001) //    148 -..-aaabbbcccdddeeefffggghhhhiiijjjkkkllllmmmnnnnooooppppqqqqrrrrsssssttttuuuuuuvvvvvvwwwwwwxxxxxxxxxyyyyyyyyyyyyyzzzzzzzzzzzzzzzzzzzzzzzzyyyyyyyyyyyyyxxxxxxxxxwwwwwwvvvvvvuuuuuuttttsssssrrrrqqqqppppoooonnnnmmmllllkkkjjjiiihhhhgggfffeeedddcccbbbaaa-..-
(PID.TID 0000.0001) //    147 -..-aaabbbcccdddeeefffggghhhiiiijjjkkkllllmmmnnnnooooppppqqqqrrrrsssstttttuuuuuvvvvvvwwwwwwwxxxxxxxxyyyyyyyyyyyyzzzzzzzzzzzzzzzzzzzzzzzzzzzzyyyyyyyyyyyyxxxxxxxxwwwwwwwvvvvvvuuuuutttttssssrrrrqqqqppppoooonnnnmmmllllkkkjjjiiiihhhgggfffeeedddcccbbbaaa-..-
(PID.TID 0000.0001) //    146 -..-aaabbbcccdddeeefffggghhhiiiijjjkkkllllmmmnnnnoooppppqqqqrrrrssssstttttuuuuuvvvvvvwwwwwwxxxxxxxxyyyyyyyyyyyzzzzzzzzzzzzzzzzzzzzzzzzzzzzzzzzyyyyyyyyyyyxxxxxxxxwwwwwwvvvvvvuuuuutttttsssssrrrrqqqqppppooonnnnmmmllllkkkjjjiiiihhhgggfffeeedddcccbbbaaa-..-
(PID.TID 0000.0001) //    145 -..-aaabbbcccdddeeefffggghhhiiijjjjkkklllmmmmnnnnoooppppqqqqrrrrsssssttttuuuuuvvvvvvwwwwwwwxxxxxxxyyyyyyyyyyyzzzzzzzzzzzzzzzzzzzzzzzzzzzzzzzzzzyyyyyyyyyyyxxxxxxxwwwwwwwvvvvvvuuuuuttttsssssrrrrqqqqppppooonnnnmmmmlllkkkjjjjiiihhhgggfffeeedddcccbbbaaa-..-
(PID.TID 0000.0001) //    144 -..-aaabbbcccdddeeefffggghhhiiijjjjkkklllmmmmnnnooooppppqqqqrrrrsssstttttuuuuuvvvvvvwwwwwwxxxxxxxxyyyyyyyyyyzzzzzzzzzzzzzzzzzzzzzzzzzzzzzzzzzzzzyyyyyyyyyyxxxxxxxxwwwwwwvvvvvvuuuuutttttssssrrrrqqqqppppoooonnnmmmmlllkkkjjjjiiihhhgggfffeeedddcccbbbaaa-..-
(PID.TID 0000.0001) //    143 -..-aaabbbcccdddeeefffggghhhiiijjjkkkklllmmmmnnnooooppppqqqqrrrrsssstttttuuuuuvvvvvwwwwwwxxxxxxxxyyyyyyyyyyzzzzzzzzzzzzzzzzzzzzzzzzzzzzzzzzzzzzzzyyyyyyyyyyxxxxxxxxwwwwwwvvvvvuuuuutttttssssrrrrqqqqppppoooonnnmmmmlllkkkkjjjiiihhhgggfffeeedddcccbbbaaa-..-
(PID.TID 0000.0001) //    142 -..-aaabbbcccdddeeefffggghhhiiijjjkkkklllmmmnnnnoooopppqqqqrrrrsssssttttuuuuuvvvvvvwwwwwwxxxxxxxyyyyyyyyyyzzzzzzzzzzzzzzzzzzzzzzzzzzzzzzzzzzzzzzzzyyyyyyyyyyxxxxxxxwwwwwwvvvvvvuuuuuttttsssssrrrrqqqqpppoooonnnnmmmlllkkkkjjjiiihhhgggfffeeedddcccbbbaaa-..-
(PID.TID 0000.0001) //    141 -..-aaabbbcccdddeeefffggghhhiiijjjkkkklllmmmnnnnoooopppqqqqrrrrsssssttttuuuuuvvvvvwwwwwwwxxxxxxxyyyyyyyyyzzzzzzzzzzzzzzzzzzzzzzzzzzzzzzzzzzzzzzzzzzyyyyyyyyyxxxxxxxwwwwwwwvvvvvuuuuuttttsssssrrrrqqqqpppoooonnnnmmmlllkkkkjjjiiihhhgggfffeeedddcccbbbaaa-..-
(PID.TID 0000.0001) //    140 -..-aaabbcccddddeeefffggghhhiiijjjkkkllllmmmnnnnoooppppqqqqrrrrsssstttttuuuuuvvvvvwwwwwwxxxxxxxyyyyyyyyyzzzzzzzzzzzzzzzzzzzzzzzzzzzzzzzzzzzzzzzzzzzzyyyyyyyyyxxxxxxxwwwwwwvvvvvuuuuutttttssssrrrrqqqqppppooonnnnmmmllllkkkjjjiiihhhgggfffeeeddddcccbbaaa-..-
(PID.TID 0000.0001) //    139 -..-aabbbcccdddeeeffffggghhhiiijjjkkkllllmmmnnnnoooppppqqqqrrrrsssstttttuuuuuvvvvvwwwwwwxxxxxxxyyyyyyyyyzzzzzzzzzzzzzzzzz++++++++++zzzzzzzzzzzzzzzzzyyyyyyyyyxxxxxxxwwwwwwvvvvvuuuuutttttssssrrrrqqqqppppooonnnnmmmllllkkkjjjiiihhhgggffffeeedddcccbbbaa-..-
(PID.TID 0000.0001) //    138 -..-aabbbcccdddeeeffffggghhhiiijjjkkkllllmmmnnnnoooppppqqqqrrrrssssttttuuuuuvvvvvvwwwwwxxxxxxxyyyyyyyyyzzzzzzzzzzzzzzzz++++++++++++++zzzzzzzzzzzzzzzzyyyyyyyyyxxxxxxxwwwwwvvvvvvuuuuuttttssssrrrrqqqqppppooonnnnmmmllllkkkjjjiiihhhgggffffeeedddcccbbbaa-..-
(PID.TID 0000.0001) //    137 -..-aabbbcccdddeeefffgggghhhiiijjjkkkllllmmmnnnooooppppqqqqrrrrssssttttuuuuuvvvvvwwwwwwxxxxxxxyyyyyyyyyzzzzzzzzzzzzzz++++++++++++++++++zzzzzzzzzzzzzzyyyyyyyyyxxxxxxxwwwwwwvvvvvuuuuuttttssssrrrrqqqqppppoooonnnmmmllllkkkjjjiiihhhggggfffeeedddcccbbbaa-..-
(PID.TID 0000.0001) //    136 -..-aabbbcccdddeeefffggghhhhiiijjjkkklllmmmmnnnooooppppqqqrrrrsssssttttuuuuuvvvvvwwwwwwxxxxxxxyyyyyyyyzzzzzzzzzzzzzz++++++++++++++++++++zzzzzzzzzzzzzzyyyyyyyyxxxxxxxwwwwwwvvvvvuuuuuttttsssssrrrrqqqppppoooonnnmmmmlllkkkjjjiiihhhhgggfffeeedddcccbbbaa-..-
(PID.TID 0000.0001) //    135 -..-aabbbcccdddeeefffggghhhhiiijjjkkklllmmmmnnnoooopppqqqqrrrrsssstttttuuuuuvvvvvwwwwwwxxxxxxyyyyyyyyyzzzzzzzzzzzzz++++++++++++++++++++++zzzzzzzzzzzzzyyyyyyyyyxxxxxxwwwwwwvvvvvuuuuutttttssssrrrrqqqqpppoooonnnmmmmlllkkkjjjiiihhhhgggfffeeedddcccbbbaa-..-
(PID.TID 0000.0001) //    134 -..-aabbbcccdddeeefffggghhhiiiijjjkkklllmmmmnnnoooopppqqqqrrrrsssstttttuuuuvvvvvvwwwwwxxxxxxxyyyyyyyyzzzzzzzzzzzzz++++++++++++++++++++++++zzzzzzzzzzzzzyyyyyyyyxxxxxxxwwwwwvvvvvvuuuutttttssssrrrrqqqqpppoooonnnmmmmlllkkkjjjiiiihhhgggfffeeedddcccbbbaa-..-
(PID.TID 0000.0001) //    133 a..aaabbbcccdddeeefffggghhhiiiijjjkkklllmmmmnnnoooopppqqqqrrrrsssstttttuuuuvvvvvwwwwwwxxxxxxxyyyyyyyyzzzzzzzzzzzz++++++++++++++++++++++++++zzzzzzzzzzzzyyyyyyyyxxxxxxxwwwwwwvvvvvuuuutttttssssrrrrqqqqpppoooonnnmmmmlllkkkjjjiiiihhhgggfffeeedddcccbbbaaa..a
(PID.TID 0000.0001) //    132 a..aaabbbcccdddeeefffggghhhiiiijjjkkklllmmmmnnnoooopppqqqqrrrrssssttttuuuuuvvvvvwwwwwwxxxxxxxyyyyyyyyzzzzzzzzzzzz++++++++++++++++++++++++++zzzzzzzzzzzzyyyyyyyyxxxxxxxwwwwwwvvvvvuuuuuttttssssrrrrqqqqpppoooonnnmmmmlllkkkjjjiiiihhhgggfffeeedddcccbbbaaa..a
(PID.TID 0000.0001) //    131 a..aaabbbcccdddeeefffggghhhiiiijjjkkklllmmmmnnnoooppppqqqqrrrrssssttttuuuuuvvvvvwwwwwwxxxxxxyyyyyyyyzzzzzzzzzzzz++++++++++++++++++++++++++++zzzzzzzzzzzzyyyyyyyyxxxxxxwwwwwwvvvvvuuuuuttttssssrrrrqqqqppppooonnnmmmmlllkkkjjjiiiihhhgggfffeeedddcccbbbaaa..a
(PID.TID 0000.0001) //    130 a..aaabbbcccdddeeefffggghhhiiijjjjkkklllmmmnnnnoooppppqqqqrrrrssssttttuuuuuvvvvvwwwwwwxxxxxxyyyyyyyyzzzzzzzzzzzz++++++++++++++++++++++++++++zzzzzzzzzzzzyyyyyyyyxxxxxxwwwwwwvvvvvuuuuuttttssssrrrrqqqqppppooonnnnmmmlllkkkjjjjiiihhhgggfffeeedddcccbbbaaa..a
(PID.TID 0000.0001) //    129 a..aaabbbcccdddeeefffggghhhiiijjjjkkklllmmmnnnnoooppppqqqqrrrrssssttttuuuuuvvvvvwwwwwwxxxxxxyyyyyyyyzzzzzzzzzzz++++++++++++++++++++++++++++++zzzzzzzzzzzyyyyyyyyxxxxxxwwwwwwvvvvvuuuuuttttssssrrrrqqqqppppooonnnnmmmlllkkkjjjjiiihhhgggfffeeedddcccbbbaaa..a
(PID.TID 0000.0001) //    128 a..aaabbbcccdddeeefffggghhhiiijjjjkkklllmmmnnnnoooppppqqqqrrrrssssttttuuuuuvvvvvwwwwwxxxxxxxyyyyyyyyzzzzzzzzzzz++++++++++++++++++++++++++++++zzzzzzzzzzzyyyyyyyyxxxxxxxwwwwwvvvvvuuuuuttttssssrrrrqqqqppppooonnnnmmmlllkkkjjjjiiihhhgggfffeeedddcccbbbaaa..a
(PID.TID 0000.0001) //    127 a..aaabbbcccdddeeefffggghhhiiijjjjkkklllmmmnnnnoooppppqqqqrrrrssssttttuuuuuvvvvvwwwwwxxxxxxxyyyyyyyyzzzzzzzzzzz++++++++++++++++++++++++++++++zzzzzzzzzzzyyyyyyyyxxxxxxxwwwwwvvvvvuuuuuttttssssrrrrqqqqppppooonnnnmmmlllkkkjjjjiiihhhgggfffeeedddcccbbbaaa..a
(PID.TID 0000.0001) //    126 a..aaabbbcccdddeeefffggghhhiiijjjjkkklllmmmnnnnoooppppqqqqrrrrssssttttuuuuuvvvvvwwwwwxxxxxxxyyyyyyyyzzzzzzzzzzz++++++++++++++++++++++++++++++zzzzzzzzzzzyyyyyyyyxxxxxxxwwwwwvvvvvuuuuuttttssssrrrrqqqqppppooonnnnmmmlllkkkjjjjiiihhhgggfffeeedddcccbbbaaa..a
(PID.TID 0000.0001) //    125 a..aaabbbcccdddeeefffggghhhiiijjjjkkklllmmmnnnnoooppppqqqqrrrrssssttttuuuuuvvvvvwwwwwxxxxxxxyyyyyyyyzzzzzzzzzzz++++++++++++++++++++++++++++++zzzzzzzzzzzyyyyyyyyxxxxxxxwwwwwvvvvvuuuuuttttssssrrrrqqqqppppooonnnnmmmlllkkkjjjjiiihhhgggfffeeedddcccbbbaaa..a
(PID.TID 0000.0001) //    124 a..aaabbbcccdddeeefffggghhhiiijjjjkkklllmmmnnnnoooppppqqqqrrrrssssttttuuuuuvvvvvwwwwwxxxxxxxyyyyyyyyzzzzzzzzzzz++++++++++++++++++++++++++++++zzzzzzzzzzzyyyyyyyyxxxxxxxwwwwwvvvvvuuuuuttttssssrrrrqqqqppppooonnnnmmmlllkkkjjjjiiihhhgggfffeeedddcccbbbaaa..a
(PID.TID 0000.0001) //    123 a..aaabbbcccdddeeefffggghhhiiijjjjkkklllmmmnnnnoooppppqqqqrrrrssssttttuuuuuvvvvvwwwwwxxxxxxxyyyyyyyyzzzzzzzzzzz++++++++++++++++++++++++++++++zzzzzzzzzzzyyyyyyyyxxxxxxxwwwwwvvvvvuuuuuttttssssrrrrqqqqppppooonnnnmmmlllkkkjjjjiiihhhgggfffeeedddcccbbbaaa..a
(PID.TID 0000.0001) //    122 a..aaabbbcccdddeeefffggghhhiiijjjjkkklllmmmnnnnoooppppqqqqrrrrssssttttuuuuuvvvvvwwwwwxxxxxxxyyyyyyyyzzzzzzzzzzz++++++++++++++++++++++++++++++zzzzzzzzzzzyyyyyyyyxxxxxxxwwwwwvvvvvuuuuuttttssssrrrrqqqqppppooonnnnmmmlllkkkjjjjiiihhhgggfffeeedddcccbbbaaa..a
(PID.TID 0000.0001) //    121 a..aaabbbcccdddeeefffggghhhiiijjjjkkklllmmmnnnnoooppppqqqqrrrrssssttttuuuuuvvvvvwwwwwxxxxxxxyyyyyyyyzzzzzzzzzzz++++++++++++++++++++++++++++++zzzzzzzzzzzyyyyyyyyxxxxxxxwwwwwvvvvvuuuuuttttssssrrrrqqqqppppooonnnnmmmlllkkkjjjjiiihhhgggfffeeedddcccbbbaaa..a
(PID.TID 0000.0001) //    120 a..aaabbbcccdddeeefffggghhhiiijjjjkkklllmmmnnnnoooppppqqqqrrrrssssttttuuuuuvvvvvwwwwwwxxxxxxyyyyyyyyzzzzzzzzzzz++++++++++++++++++++++++++++++zzzzzzzzzzzyyyyyyyyxxxxxxwwwwwwvvvvvuuuuuttttssssrrrrqqqqppppooonnnnmmmlllkkkjjjjiiihhhgggfffeeedddcccbbbaaa..a
(PID.TID 0000.0001) //    119 a..aaabbbcccdddeeefffggghhhiiijjjjkkklllmmmnnnnoooppppqqqqrrrrssssttttuuuuuvvvvvwwwwwwxxxxxxyyyyyyyyzzzzzzzzzzzz++++++++++++++++++++++++++++zzzzzzzzzzzzyyyyyyyyxxxxxxwwwwwwvvvvvuuuuuttttssssrrrrqqqqppppooonnnnmmmlllkkkjjjjiiihhhgggfffeeedddcccbbbaaa..a
(PID.TID 0000.0001) //    118 a..aaabbbcccdddeeefffggghhhiiiijjjkkklllmmmmnnnoooppppqqqqrrrrssssttttuuuuuvvvvvwwwwwwxxxxxxyyyyyyyyzzzzzzzzzzzz++++++++++++++++++++++++++++zzzzzzzzzzzzyyyyyyyyxxxxxxwwwwwwvvvvvuuuuuttttssssrrrrqqqqppppooonnnmmmmlllkkkjjjiiiihhhgggfffeeedddcccbbbaaa..a
(PID.TID 0000.0001) //    117 a..aaabbbcccdddeeefffggghhhiiiijjjkkklllmmmmnnnoooopppqqqqrrrrssssttttuuuuuvvvvvwwwwwwxxxxxxxyyyyyyyyzzzzzzzzzzzz++++++++++++++++++++++++++zzzzzzzzzzzzyyyyyyyyxxxxxxxwwwwwwvvvvvuuuuuttttssssrrrrqqqqpppoooonnnmmmmlllkkkjjjiiiihhhgggfffeeedddcccbbbaaa..a
(PID.TID 0000.0001) //    116 a..aaabbbcccdddeeefffggghhhiiiijjjkkklllmmmmnnnoooopppqqqqrrrrsssstttttuuuuvvvvvwwwwwwxxxxxxxyyyyyyyyzzzzzzzzzzzz++++++++++++++++++++++++++zzzzzzzzzzzzyyyyyyyyxxxxxxxwwwwwwvvvvvuuuutttttssssrrrrqqqqpppoooonnnmmmmlllkkkjjjiiiihhhgggfffeeedddcccbbbaaa..a
(PID.TID 0000.0001) //    115 -..-aabbbcccdddeeefffggghhhiiiijjjkkklllmmmmnnnoooopppqqqqrrrrsssstttttuuuuvvvvvvwwwwwxxxxxxxyyyyyyyyzzzzzzzzzzzzz++++++++++++++++++++++++zzzzzzzzzzzzzyyyyyyyyxxxxxxxwwwwwvvvvvvuuuutttttssssrrrrqqqqpppoooonnnmmmmlllkkkjjjiiiihhhgggfffeeedddcccbbbaa-..-
(PID.TID 0000.0001) //    114 -..-aabbbcccdddeeefffggghhhhiiijjjkkklllmmmmnnnoooopppqqqqrrrrsssstttttuuuuuvvvvvwwwwwwxxxxxxyyyyyyyyyzzzzzzzzzzzzz++++++++++++++++++++++zzzzzzzzzzzzzyyyyyyyyyxxxxxxwwwwwwvvvvvuuuuutttttssssrrrrqqqqpppoooonnnmmmmlllkkkjjjiiihhhhgggfffeeedddcccbbbaa-..-
(PID.TID 0000.0001) //    113 -..-aabbbcccdddeeefffggghhhhiiijjjkkklllmmmmnnnooooppppqqqrrrrsssssttttuuuuuvvvvvwwwwwwxxxxxxxyyyyyyyyzzzzzzzzzzzzzz++++++++++++++++++++zzzzzzzzzzzzzzyyyyyyyyxxxxxxxwwwwwwvvvvvuuuuuttttsssssrrrrqqqppppoooonnnmmmmlllkkkjjjiiihhhhgggfffeeedddcccbbbaa-..-
(PID.TID 0000.0001) //    112 -..-aabbbcccdddeeefffgggghhhiiijjjkkkllllmmmnnnooooppppqqqqrrrrssssttttuuuuuvvvvvwwwwwwxxxxxxxyyyyyyyyyzzzzzzzzzzzzzz++++++++++++++++++zzzzzzzzzzzzzzyyyyyyyyyxxxxxxxwwwwwwvvvvvuuuuuttttssssrrrrqqqqppppoooonnnmmmllllkkkjjjiiihhhggggfffeeedddcccbbbaa-..-
(PID.TID 0000.0001) //    111 -..-aabbbcccdddeeeffffggghhhiiijjjkkkllllmmmnnnnoooppppqqqqrrrrssssttttuuuuuvvvvvvwwwwwxxxxxxxyyyyyyyyyzzzzzzzzzzzzzzzz++++++++++++++zzzzzzzzzzzzzzzzyyyyyyyyyxxxxxxxwwwwwvvvvvvuuuuuttttssssrrrrqqqqppppooonnnnmmmllllkkkjjjiiihhhgggffffeeedddcccbbbaa-..-
(PID.TID 0000.0001) //    110 -..-aabbbcccdddeeeffffggghhhiiijjjkkkllllmmmnnnnoooppppqqqqrrrrsssstttttuuuuuvvvvvwwwwwwxxxxxxxyyyyyyyyyzzzzzzzzzzzzzzzzz++++++++++zzzzzzzzzzzzzzzzzyyyyyyyyyxxxxxxxwwwwwwvvvvvuuuuutttttssssrrrrqqqqppppooonnnnmmmllllkkkjjjiiihhhgggffffeeedddcccbbbaa-..-
(PID.TID 0000.0001) //    109 -..-aaabbcccddddeeefffggghhhiiijjjkkkllllmmmnnnnoooppppqqqqrrrrsssstttttuuuuuvvvvvwwwwwwxxxxxxxyyyyyyyyyzzzzzzzzzzzzzzzzzzzzzzzzzzzzzzzzzzzzzzzzzzzzyyyyyyyyyxxxxxxxwwwwwwvvvvvuuuuutttttssssrrrrqqqqppppooonnnnmmmllllkkkjjjiiihhhgggfffeeeddddcccbbaaa-..-
(PID.TID 0000.0001) //    108 -..-aaabbbcccdddeeefffggghhhiiijjjkkkklllmmmnnnnoooopppqqqqrrrrsssssttttuuuuuvvvvvwwwwwwwxxxxxxxyyyyyyyyyzzzzzzzzzzzzzzzzzzzzzzzzzzzzzzzzzzzzzzzzzzyyyyyyyyyxxxxxxxwwwwwwwvvvvvuuuuuttttsssssrrrrqqqqpppoooonnnnmmmlllkkkkjjjiiihhhgggfffeeedddcccbbbaaa-..-
(PID.TID 0000.0001) //    107 -..-aaabbbcccdddeeefffggghhhiiijjjkkkklllmmmnnnnoooopppqqqqrrrrsssssttttuuuuuvvvvvvwwwwwwxxxxxxxyyyyyyyyyyzzzzzzzzzzzzzzzzzzzzzzzzzzzzzzzzzzzzzzzzyyyyyyyyyyxxxxxxxwwwwwwvvvvvvuuuuuttttsssssrrrrqqqqpppoooonnnnmmmlllkkkkjjjiiihhhgggfffeeedddcccbbbaaa-..-
(PID.TID 0000.0001) //    106 -..-aaabbbcccdddeeefffggghhhiiijjjkkkklllmmmmnnnooooppppqqqqrrrrsssstttttuuuuuvvvvvwwwwwwxxxxxxxxyyyyyyyyyyzzzzzzzzzzzzzzzzzzzzzzzzzzzzzzzzzzzzzzyyyyyyyyyyxxxxxxxxwwwwwwvvvvvuuuuutttttssssrrrrqqqqppppoooonnnmmmmlllkkkkjjjiiihhhgggfffeeedddcccbbbaaa-..-
(PID.TID 0000.0001) //    105 -..-aaabbbcccdddeeefffggghhhiiijjjjkkklllmmmmnnnooooppppqqqqrrrrsssstttttuuuuuvvvvvvwwwwwwxxxxxxxxyyyyyyyyyyzzzzzzzzzzzzzzzzzzzzzzzzzzzzzzzzzzzzyyyyyyyyyyxxxxxxxxwwwwwwvvvvvvuuuuutttttssssrrrrqqqqppppoooonnnmmmmlllkkkjjjjiiihhhgggfffeeedddcccbbbaaa-..-
(PID.TID 0000.0001) //    104 -..-aaabbbcccdddeeefffggghhhiiijjjjkkklllmmmmnnnnoooppppqqqqrrrrsssssttttuuuuuvvvvvvwwwwwwwxxxxxxxyyyyyyyyyyyzzzzzzzzzzzzzzzzzzzzzzzzzzzzzzzzzzyyyyyyyyyyyxxxxxxxwwwwwwwvvvvvvuuuuuttttsssssrrrrqqqqppppooonnnnmmmmlllkkkjjjjiiihhhgggfffeeedddcccbbbaaa-..-
(PID.TID 0000.0001) //    103 -..-aaabbbcccdddeeefffggghhhiiiijjjkkkllllmmmnnnnoooppppqqqqrrrrssssstttttuuuuuvvvvvvwwwwwwxxxxxxxxyyyyyyyyyyyzzzzzzzzzzzzzzzzzzzzzzzzzzzzzzzzyyyyyyyyyyyxxxxxxxxwwwwwwvvvvvvuuuuutttttsssssrrrrqqqqppppooonnnnmmmllllkkkjjjiiiihhhgggfffeeedddcccbbbaaa-..-
(PID.TID 0000.0001) //    102 -..-aaabbbcccdddeeefffggghhhiiiijjjkkkllllmmmnnnnooooppppqqqqrrrrsssstttttuuuuuvvvvvvwwwwwwwxxxxxxxxyyyyyyyyyyyyzzzzzzzzzzzzzzzzzzzzzzzzzzzzyyyyyyyyyyyyxxxxxxxxwwwwwwwvvvvvvuuuuutttttssssrrrrqqqqppppoooonnnnmmmllllkkkjjjiiiihhhgggfffeeedddcccbbbaaa-..-
(PID.TID 0000.0001) //    101 -..-aaabbbcccdddeeefffggghhhhiiijjjkkkllllmmmnnnnooooppppqqqqrrrrsssssttttuuuuuuvvvvvvwwwwwwxxxxxxxxxyyyyyyyyyyyyyzzzzzzzzzzzzzzzzzzzzzzzzyyyyyyyyyyyyyxxxxxxxxxwwwwwwvvvvvvuuuuuuttttsssssrrrrqqqqppppoooonnnnmmmllllkkkjjjiiihhhhgggfffeeedddcccbbbaaa-..-
(PID.TID 0000.0001) //    100 -..-aaabbbcccdddeeefffggghhhhiiijjjkkkklllmmmmnnnooooppppqqqqrrrrssssstttttuuuuuvvvvvvwwwwwwwxxxxxxxxxyyyyyyyyyyyyyyzzzzzzzzzzzzzzzzzzzzyyyyyyyyyyyyyyxxxxxxxxxwwwwwwwvvvvvvuuuuutttttsssssrrrrqqqqppppoooonnnmmmmlllkkkkjjjiiihhhhgggfffeeedddcccbbbaaa-..-
(PID.TID 0000.0001) //     99 -..-aaabbbcccdddeeefffggghhhhiiijjjkkkklllmmmmnnnnoooppppqqqqrrrrrsssstttttuuuuuuvvvvvvwwwwwwwxxxxxxxxxyyyyyyyyyyyyyyyyzzzzzzzzzzzzzzyyyyyyyyyyyyyyyyxxxxxxxxxwwwwwwwvvvvvvuuuuuutttttssssrrrrrqqqqppppooonnnnmmmmlllkkkkjjjiiihhhhgggfffeeedddcccbbbaaa-..-
(PID.TID 0000.0001) //     98 -..-aaabbbcccdddeeefffgggghhhiiijjjjkkklllmmmmnnnnooooppppqqqqrrrrssssstttttuuuuuvvvvvvwwwwwwwwxxxxxxxxxyyyyyyyyyyyyyyyyyyyyyyyyyyyyyyyyyyyyyyyyyyyyxxxxxxxxxwwwwwwwwvvvvvvuuuuutttttsssssrrrrqqqqppppoooonnnnmmmmlllkkkjjjjiiihhhggggfffeeedddcccbbbaaa-..-
(PID.TID 0000.0001) //     97 -..-aaabbbcccdddeeefffgggghhhiiijjjjkkkllllmmmnnnnooooppppqqqqrrrrssssstttttuuuuuuvvvvvvwwwwwwwxxxxxxxxxxyyyyyyyyyyyyyyyyyyyyyyyyyyyyyyyyyyyyyyyyyyxxxxxxxxxxwwwwwwwvvvvvvuuuuuutttttsssssrrrrqqqqppppoooonnnnmmmllllkkkjjjjiiihhhggggfffeeedddcccbbbaaa-..-
(PID.TID 0000.0001) //     96 -..-aaabbbcccdddeeeffffggghhhiiijjjjkkkllllmmmmnnnooooppppqqqqrrrrrssssstttttuuuuuvvvvvvvwwwwwwwxxxxxxxxxxxyyyyyyyyyyyyyyyyyyyyyyyyyyyyyyyyyyyyyyxxxxxxxxxxxwwwwwwwvvvvvvvuuuuutttttsssssrrrrrqqqqppppoooonnnmmmmllllkkkjjjjiiihhhgggffffeeedddcccbbbaaa-..-
(PID.TID 0000.0001) //     95 -..-aaabbbcccdddeeeffffggghhhiiiijjjkkkklllmmmmnnnnooopppppqqqqrrrrssssstttttuuuuuuvvvvvvvwwwwwwwxxxxxxxxxxxyyyyyyyyyyyyyyyyyyyyyyyyyyyyyyyyyyyyxxxxxxxxxxxwwwwwwwvvvvvvvuuuuuutttttsssssrrrrqqqqpppppooonnnnmmmmlllkkkkjjjiiiihhhgggffffeeedddcccbbbaaa-..-
(PID.TID 0000.0001) //     94 -..-aaabbbcccdddeeeefffggghhhiiiijjjkkkklllmmmmnnnnooooppppqqqqrrrrrssssstttttuuuuuuvvvvvvwwwwwwwwxxxxxxxxxxxxyyyyyyyyyyyyyyyyyyyyyyyyyyyyyyyyxxxxxxxxxxxxwwwwwwwwvvvvvvuuuuuutttttsssssrrrrrqqqqppppoooonnnnmmmmlllkkkkjjjiiiihhhgggfffeeeedddcccbbbaaa-..-
(PID.TID 0000.0001) //     93 -..-aaabbbcccdddeeeefffggghhhhiiijjjkkkkllllmmmnnnnooooppppqqqqqrrrrssssstttttuuuuuuvvvvvvvwwwwwwwwwxxxxxxxxxxxxyyyyyyyyyyyyyyyyyyyyyyyyyyyyxxxxxxxxxxxxwwwwwwwwwvvvvvvvuuuuuutttttsssssrrrrqqqqqppppoooonnnnmmmllllkkkkjjjiiihhhhgggfffeeeedddcccbbbaaa-..-
(PID.TID 0000.0001) //     92 -..-aaabbbcccdddeeeefffggghhhhiiijjjjkkkllllmmmmnnnoooopppppqqqqrrrrrssssstttttuuuuuuvvvvvvvwwwwwwwwwxxxxxxxxxxxxxxyyyyyyyyyyyyyyyyyyyyyyxxxxxxxxxxxxxxwwwwwwwwwvvvvvvvuuuuuutttttsssssrrrrrqqqqpppppoooonnnmmmmllllkkkjjjjiiihhhhgggfffeeeedddcccbbbaaa-..-
(PID.TID 0000.0001) //     91 -..-aaabbbcccddddeeefffggghhhhiiijjjjkkkllllmmmmnnnnooooppppqqqqrrrrrsssssttttttuuuuuuvvvvvvvwwwwwwwwwxxxxxxxxxxxxxxxxxyyyyyyyyyyyyyyxxxxxxxxxxxxxxxxxwwwwwwwwwvvvvvvvuuuuuuttttttsssssrrrrrqqqqppppoooonnnnmmmmllllkkkjjjjiiihhhhgggfffeeeddddcccbbbaaa-..-
(PID.TID 0000.0001) //     90 -..-aaabbbcccddddeeefffgggghhhiiiijjjkkkklllmmmmnnnnooooppppqqqqqrrrrrssssstttttuuuuuuuvvvvvvvwwwwwwwwwwxxxxxxxxxxxxxxxxxxxxxxxxxxxxxxxxxxxxxxxxxxxxwwwwwwwwwwvvvvvvvuuuuuuutttttsssssrrrrrqqqqqppppoooonnnnmmmmlllkkkkjjjiiiihhhggggfffeeeddddcccbbbaaa-..-
(PID.TID 0000.0001) //     89 -..-aaabbbcccddddeeefffgggghhhiiiijjjkkkkllllmmmnnnnoooooppppqqqqrrrrrsssssttttttuuuuuuuvvvvvvvwwwwwwwwwwwxxxxxxxxxxxxxxxxxxxxxxxxxxxxxxxxxxxxxxxxwwwwwwwwwwwvvvvvvvuuuuuuuttttttsssssrrrrrqqqqppppooooonnnnmmmllllkkkkjjjiiiihhhggggfffeeeddddcccbbbaaa-..-
(PID.TID 0000.0001) //     88 -..-aaabbbccccdddeeeffffggghhhiiiijjjjkkkllllmmmmnnnnooooppppqqqqqrrrrrsssssttttttuuuuuuuvvvvvvvvwwwwwwwwwwxxxxxxxxxxxxxxxxxxxxxxxxxxxxxxxxxxxxxxwwwwwwwwwwvvvvvvvvuuuuuuuttttttsssssrrrrrqqqqqppppoooonnnnmmmmllllkkkjjjjiiiihhhgggffffeeedddccccbbbaaa-..-
(PID.TID 0000.0001) //     87 -..-aaabbbccccdddeeeffffggghhhhiiijjjjkkkllllmmmmnnnnoooopppppqqqqrrrrrssssssttttttuuuuuuuvvvvvvvvwwwwwwwwwwwwxxxxxxxxxxxxxxxxxxxxxxxxxxxxxxxxwwwwwwwwwwwwvvvvvvvvuuuuuuuttttttssssssrrrrrqqqqpppppoooonnnnmmmmllllkkkjjjjiiihhhhgggffffeeedddccccbbbaaa-..-
(PID.TID 0000.0001) //     86 -..-aaabbbccccdddeeeffffggghhhhiiijjjjkkkkllllmmmmnnnnooooppppqqqqqrrrrrssssssttttttuuuuuuuvvvvvvvvwwwwwwwwwwwwwxxxxxxxxxxxxxxxxxxxxxxxxxxxxwwwwwwwwwwwwwvvvvvvvvuuuuuuuttttttssssssrrrrrqqqqqppppoooonnnnmmmmllllkkkkjjjjiiihhhhgggffffeeedddccccbbbaaa-..-
(PID.TID 0000.0001) //     85 -..-aaabbbccccdddeeeefffggghhhhiiiijjjkkkkllllmmmmnnnnoooopppppqqqqqrrrrrssssstttttttuuuuuuuvvvvvvvvvwwwwwwwwwwwwwwwxxxxxxxxxxxxxxxxxxxxwwwwwwwwwwwwwwwvvvvvvvvvuuuuuuutttttttsssssrrrrrqqqqqpppppoooonnnnmmmmllllkkkkjjjiiiihhhhgggfffeeeedddccccbbbaaa-..-
(PID.TID 0000.0001) //     84 -..-aaabbbccccdddeeeefffgggghhhiiiijjjjkkkllllmmmmnnnnoooooppppqqqqqrrrrrsssssstttttttuuuuuuuvvvvvvvvvvwwwwwwwwwwwwwwwwwwwxxxxxxxxwwwwwwwwwwwwwwwwwwwvvvvvvvvvvuuuuuuutttttttssssssrrrrrqqqqqppppooooonnnnmmmmllllkkkjjjjiiiihhhggggfffeeeedddccccbbbaaa-..-
(PID.TID 0000.0001) //     83 -..-aaabbbccccdddeeeefffgggghhhiiiijjjjkkkkllllmmmmnnnnoooopppppqqqqqrrrrrsssssstttttttuuuuuuuvvvvvvvvvvvwwwwwwwwwwwwwwwwwwwwwwwwwwwwwwwwwwwwwwwwwwvvvvvvvvvvvuuuuuuutttttttssssssrrrrrqqqqqpppppoooonnnnmmmmllllkkkkjjjjiiiihhhggggfffeeeedddccccbbbaaa-..-
(PID.TID 0000.0001) //     82 -..-aaabbbbcccdddeeeefffgggghhhhiiijjjjkkkkllllmmmmnnnnooooopppppqqqqqrrrrrsssssstttttttuuuuuuuuvvvvvvvvvvvwwwwwwwwwwwwwwwwwwwwwwwwwwwwwwwwwwwwwwvvvvvvvvvvvuuuuuuuutttttttssssssrrrrrqqqqqpppppooooonnnnmmmmllllkkkkjjjjiiihhhhggggfffeeeedddcccbbbbaaa-..-
(PID.TID 0000.0001) //     81 -..-aaabbbbcccddddeeeffffggghhhhiiiijjjkkkkllllmmmmmnnnnoooopppppqqqqqrrrrrrsssssstttttttuuuuuuuuvvvvvvvvvvvvwwwwwwwwwwwwwwwwwwwwwwwwwwwwwwwwwwvvvvvvvvvvvvuuuuuuuutttttttssssssrrrrrrqqqqqpppppoooonnnnmmmmmllllkkkkjjjiiiihhhhgggffffeeeddddcccbbbbaaa-..-
(PID.TID 0000.0001) //     80 -..-aaabbbbcccddddeeeffffggghhhhiiiijjjjkkkkllllmmmmnnnnooooopppppqqqqqrrrrrrsssssstttttttuuuuuuuuuvvvvvvvvvvvvvvwwwwwwwwwwwwwwwwwwwwwwwwwwvvvvvvvvvvvvvvuuuuuuuuutttttttssssssrrrrrrqqqqqpppppooooonnnnmmmmllllkkkkjjjjiiiihhhhgggffffeeeddddcccbbbbaaa-..-
(PID.TID 0000.0001) //     79 -..-aaabbbbcccddddeeeffffgggghhhiiiijjjjkkkkllllmmmmnnnnnoooooppppqqqqqqrrrrrrsssssstttttttuuuuuuuuuuvvvvvvvvvvvvvvvvwwwwwwwwwwwwwwwwwwvvvvvvvvvvvvvvvvuuuuuuuuuutttttttssssssrrrrrrqqqqqqppppooooonnnnnmmmmllllkkkkjjjjiiiihhhggggffffeeeddddcccbbbbaaa-..-
(PID.TID 0000.0001) //     78 -..-aaabbbbcccddddeeeefffgggghhhhiiiijjjkkkklllllmmmmnnnnooooopppppqqqqqqrrrrrsssssssttttttttuuuuuuuuuuvvvvvvvvvvvvvvvvvvvvvvvvvvvvvvvvvvvvvvvvvvvvvvuuuuuuuuuuttttttttsssssssrrrrrqqqqqqpppppooooonnnnmmmmlllllkkkkjjjiiiihhhhggggfffeeeeddddcccbbbbaaa-..-
(PID.TID 0000.0001) //     77 -..-aaabbbbcccddddeeeefffgggghhhhiiiijjjjkkkkllllmmmmnnnnnooooopppppqqqqqrrrrrrsssssssttttttttuuuuuuuuuuuvvvvvvvvvvvvvvvvvvvvvvvvvvvvvvvvvvvvvvvvvvuuuuuuuuuuuttttttttsssssssrrrrrrqqqqqpppppooooonnnnnmmmmllllkkkkjjjjiiiihhhhggggfffeeeeddddcccbbbbaaa-..-
(PID.TID 0000.0001) //     76 -..-aaabbbbccccdddeeeeffffggghhhhiiiijjjjkkkklllllmmmmnnnnnooooopppppqqqqqrrrrrrrsssssssttttttttuuuuuuuuuuuuvvvvvvvvvvvvvvvvvvvvvvvvvvvvvvvvvvvvuuuuuuuuuuuuttttttttsssssssrrrrrrrqqqqqpppppooooonnnnnmmmmlllllkkkkjjjjiiiihhhhgggffffeeeedddccccbbbbaaa-..-
(PID.TID 0000.0001) //     75 -..-aaabbbbccccdddeeeeffffgggghhhhiiiijjjjkkkkllllmmmmmnnnnoooooppppppqqqqqrrrrrrrssssssstttttttttuuuuuuuuuuuuuuvvvvvvvvvvvvvvvvvvvvvvvvvvvvuuuuuuuuuuuuuutttttttttsssssssrrrrrrrqqqqqppppppooooonnnnmmmmmllllkkkkjjjjiiiihhhhggggffffeeeedddccccbbbbaaa-..-
(PID.TID 0000.0001) //     74 -..-aaaabbbccccddddeeeffffgggghhhhiiiijjjjkkkklllllmmmmnnnnnooooopppppqqqqqqrrrrrrrsssssssttttttttttuuuuuuuuuuuuuuuuvvvvvvvvvvvvvvvvvvvvuuuuuuuuuuuuuuuuttttttttttsssssssrrrrrrrqqqqqqpppppooooonnnnnmmmmlllllkkkkjjjjiiiihhhhggggffffeeeddddccccbbbaaaa-..-
(PID.TID 0000.0001) //     73 -..-aaaabbbccccddddeeeffffgggghhhhiiiijjjjkkkkkllllmmmmmnnnnnooooopppppqqqqqqrrrrrrrssssssssttttttttttuuuuuuuuuuuuuuuuuuuuuuuuuuuuuuuuuuuuuuuuuuuuuuuuttttttttttssssssssrrrrrrrqqqqqqpppppooooonnnnnmmmmmllllkkkkkjjjjiiiihhhhggggffffeeeddddccccbbbaaaa-..-
(PID.TID 0000.0001) //     72 -..-aaaabbbccccddddeeeeffffgggghhhhiiiijjjjkkkklllllmmmmnnnnnoooooopppppqqqqqqrrrrrrrssssssssstttttttttttuuuuuuuuuuuuuuuuuuuuuuuuuuuuuuuuuuuuuuuuuutttttttttttsssssssssrrrrrrrqqqqqqpppppoooooonnnnnmmmmlllllkkkkjjjjiiiihhhhggggffffeeeeddddccccbbbaaaa-..-
(PID.TID 0000.0001) //     71 -..-aaaabbbccccddddeeeeffffgggghhhhiiiijjjjkkkkkllllmmmmmnnnnnoooooppppppqqqqqqqrrrrrrrsssssssssttttttttttttuuuuuuuuuuuuuuuuuuuuuuuuuuuuuuuuuuuuttttttttttttsssssssssrrrrrrrqqqqqqqppppppooooonnnnnmmmmmllllkkkkkjjjjiiiihhhhggggffffeeeeddddccccbbbaaaa-..-
(PID.TID 0000.0001) //     70 -..-aaaabbbbcccddddeeeeffffgggghhhhiiiijjjjjkkkklllllmmmmmnnnnnoooooppppppqqqqqqqrrrrrrrssssssssssttttttttttttttuuuuuuuuuuuuuuuuuuuuuuuuuuuuttttttttttttttssssssssssrrrrrrrqqqqqqqppppppooooonnnnnmmmmmlllllkkkkjjjjjiiiihhhhggggffffeeeeddddcccbbbbaaaa-..-
(PID.TID 0000.0001) //     69 -..-aaaabbbbccccdddeeeeffffgggghhhhhiiiijjjjkkkkklllllmmmmnnnnnnoooooppppppqqqqqqqrrrrrrrrssssssssssttttttttttttttttttuuuuuuuuuuuuuuuuttttttttttttttttttssssssssssrrrrrrrrqqqqqqqppppppooooonnnnnnmmmmlllllkkkkkjjjjiiiihhhhhggggffffeeeedddccccbbbbaaaa-..-
(PID.TID 0000.0001) //     68 -..-aaaabbbbccccddddeeeeffffgggghhhhiiiijjjjjkkkklllllmmmmmnnnnnnooooopppppppqqqqqqqrrrrrrrrsssssssssssttttttttttttttttttttttttttttttttttttttttttttttsssssssssssrrrrrrrrqqqqqqqpppppppooooonnnnnnmmmmmlllllkkkkjjjjjiiiihhhhggggffffeeeeddddccccbbbbaaaa-..-
(PID.TID 0000.0001) //     67 -..-aaaabbbbccccddddeeeeffffgggghhhhiiiiijjjjkkkkklllllmmmmmnnnnnoooooopppppppqqqqqqqrrrrrrrrrssssssssssssttttttttttttttttttttttttttttttttttttttttssssssssssssrrrrrrrrrqqqqqqqpppppppoooooonnnnnmmmmmlllllkkkkkjjjjiiiiihhhhggggffffeeeeddddccccbbbbaaaa-..-
(PID.TID 0000.0001) //     66 -..-aaaabbbbccccddddeeeeffffggggghhhhiiiijjjjjkkkkklllllmmmmmnnnnnoooooopppppppqqqqqqqqrrrrrrrrrssssssssssssssttttttttttttttttttttttttttttttttssssssssssssssrrrrrrrrrqqqqqqqqpppppppoooooonnnnnmmmmmlllllkkkkkjjjjjiiiihhhhgggggffffeeeeddddccccbbbbaaaa-..-
(PID.TID 0000.0001) //     65 -..-aaaabbbbccccddddeeeefffffgggghhhhiiiiijjjjkkkkklllllmmmmmmnnnnnoooooooppppppqqqqqqqqrrrrrrrrrrsssssssssssssssssttttttttttttttttttttttsssssssssssssssssrrrrrrrrrrqqqqqqqqppppppooooooonnnnnmmmmmmlllllkkkkkjjjjiiiiihhhhggggfffffeeeeddddccccbbbbaaaa-..-
(PID.TID 0000.0001) //     64 -..-aaaabbbbccccddddeeeeeffffgggghhhhhiiiijjjjjkkkkklllllmmmmmmnnnnnooooooopppppppqqqqqqqqrrrrrrrrrrrssssssssssssssssssssssssssssssssssssssssssssssssssrrrrrrrrrrrqqqqqqqqpppppppooooooonnnnnmmmmmmlllllkkkkkjjjjjiiiihhhhhggggffffeeeeeddddccccbbbbaaaa-..-
(PID.TID 0000.0001) //     63 -..-aaaabbbbccccdddddeeeeffffggggghhhhiiiiijjjjjkkkkklllllmmmmmmnnnnnnooooooppppppppqqqqqqqqrrrrrrrrrrrrssssssssssssssssssssssssssssssssssssssssssssrrrrrrrrrrrrqqqqqqqqppppppppoooooonnnnnnmmmmmmlllllkkkkkjjjjjiiiiihhhhgggggffffeeeedddddccccbbbbaaaa-..-
(PID.TID 0000.0001) //     62 -..-aaaabbbbcccccddddeeeefffffgggghhhhhiiiijjjjjkkkkkllllllmmmmmmnnnnnnooooooopppppppqqqqqqqqqqrrrrrrrrrrrrrssssssssssssssssssssssssssssssssssssrrrrrrrrrrrrrqqqqqqqqqqpppppppooooooonnnnnnmmmmmmllllllkkkkkjjjjjiiiihhhhhggggfffffeeeeddddcccccbbbbaaaa-..-
(PID.TID 0000.0001) //     61 -..-aaaabbbbbccccddddeeeeeffffggggghhhhiiiiijjjjjkkkkkllllllmmmmmmnnnnnnoooooooppppppppqqqqqqqqqqrrrrrrrrrrrrrrrrrssssssssssssssssssssssssrrrrrrrrrrrrrrrrrqqqqqqqqqqppppppppooooooonnnnnnmmmmmmllllllkkkkkjjjjjiiiiihhhhgggggffffeeeeeddddccccbbbbbaaaa-..-
(PID.TID 0000.0001) //     60 -..-aaaabbbbbccccddddeeeeeffffggggghhhhhiiiiijjjjjkkkkkllllllmmmmmmnnnnnnooooooooppppppppqqqqqqqqqqqrrrrrrrrrrrrrrrrrrrrrrrrrrrrrrrrrrrrrrrrrrrrrrrrrrrrqqqqqqqqqqqppppppppoooooooonnnnnnmmmmmmllllllkkkkkjjjjjiiiiihhhhhgggggffffeeeeeddddccccbbbbbaaaa-..-
(PID.TID 0000.0001) //     59 -..-aaaaabbbbccccdddddeeeefffffggggghhhhiiiiijjjjjkkkkkkllllllmmmmmmnnnnnnnooooooopppppppppqqqqqqqqqqqqqrrrrrrrrrrrrrrrrrrrrrrrrrrrrrrrrrrrrrrrrrrrrqqqqqqqqqqqqqpppppppppooooooonnnnnnnmmmmmmllllllkkkkkkjjjjjiiiiihhhhgggggfffffeeeedddddccccbbbbaaaaa-..-
(PID.TID 0000.0001) //     58 -..-aaaaabbbbcccccddddeeeeeffffggggghhhhhiiiiijjjjjkkkkkkllllllmmmmmmnnnnnnnooooooooppppppppppqqqqqqqqqqqqqqrrrrrrrrrrrrrrrrrrrrrrrrrrrrrrrrrrrrqqqqqqqqqqqqqqppppppppppoooooooonnnnnnnmmmmmmllllllkkkkkkjjjjjiiiiihhhhhgggggffffeeeeeddddcccccbbbbaaaaa-..-
(PID.TID 0000.0001) //     57 -..-aaaaabbbbcccccddddeeeeefffffggggghhhhhiiiiijjjjjkkkkkkllllllmmmmmmnnnnnnnnoooooooopppppppppppqqqqqqqqqqqqqqqqqrrrrrrrrrrrrrrrrrrrrrrrrqqqqqqqqqqqqqqqqqpppppppppppoooooooonnnnnnnnmmmmmmllllllkkkkkkjjjjjiiiiihhhhhgggggfffffeeeeeddddcccccbbbbaaaaa-..-
(PID.TID 0000.0001) //     56 -..-aaaaabbbbcccccdddddeeeefffffggggghhhhhiiiiijjjjjjkkkkkkllllllmmmmmmmnnnnnnnoooooooooppppppppppppqqqqqqqqqqqqqqqqqqqqqqqqqqqqqqqqqqqqqqqqqqqqqqqqqqqqppppppppppppooooooooonnnnnnnmmmmmmmllllllkkkkkkjjjjjjiiiiihhhhhgggggfffffeeeedddddcccccbbbbaaaaa-..-
(PID.TID 0000.0001) //     55 -..-aaaaabbbbbccccdddddeeeeefffffggggghhhhhiiiiijjjjjjkkkkkkllllllmmmmmmmnnnnnnnnoooooooooopppppppppppppqqqqqqqqqqqqqqqqqqqqqqqqqqqqqqqqqqqqqqqqqqqqpppppppppppppoooooooooonnnnnnnnmmmmmmmllllllkkkkkkjjjjjjiiiiihhhhhgggggfffffeeeeedddddccccbbbbbaaaaa-..-
(PID.TID 0000.0001) //     54 -..-aaaaabbbbbccccdddddeeeeefffffggggghhhhhhiiiiijjjjjjkkkkkklllllllmmmmmmmnnnnnnnnoooooooooopppppppppppppppqqqqqqqqqqqqqqqqqqqqqqqqqqqqqqqqqqqqpppppppppppppppoooooooooonnnnnnnnmmmmmmmlllllllkkkkkkjjjjjjiiiiihhhhhhgggggfffffeeeeedddddccccbbbbbaaaaa-..-
(PID.TID 0000.0001) //     53 -..-aaaaabbbbbcccccdddddeeeeefffffggggghhhhhiiiiiijjjjjjkkkkkklllllllmmmmmmmmnnnnnnnnooooooooooopppppppppppppppppppqqqqqqqqqqqqqqqqqqqqqqpppppppppppppppppppooooooooooonnnnnnnnmmmmmmmmlllllllkkkkkkjjjjjjiiiiiihhhhhgggggfffffeeeeedddddcccccbbbbbaaaaa-..-
(PID.TID 0000.0001) //     52 -..-aaaaabbbbbcccccdddddeeeeefffffgggggghhhhhiiiiiijjjjjjkkkkkkllllllllmmmmmmmnnnnnnnnnnooooooooooooppppppppppppppppppppppppppppppppppppppppppppppppppppoooooooooooonnnnnnnnnnmmmmmmmllllllllkkkkkkjjjjjjiiiiiihhhhhggggggfffffeeeeedddddcccccbbbbbaaaaa-..-
(PID.TID 0000.0001) //     51 -..-aaaaabbbbbcccccdddddeeeeeefffffggggghhhhhhiiiiiijjjjjjkkkkkkklllllllmmmmmmmmnnnnnnnnnnooooooooooooooppppppppppppppppppppppppppppppppppppppppppppoooooooooooooonnnnnnnnnnmmmmmmmmlllllllkkkkkkkjjjjjjiiiiiihhhhhhgggggfffffeeeeeedddddcccccbbbbbaaaaa-..-
(PID.TID 0000.0001) //     50 -..--aaaaabbbbbcccccdddddeeeeefffffgggggghhhhhhiiiiiijjjjjjkkkkkkkllllllllmmmmmmmmmnnnnnnnnnnoooooooooooooooooppppppppppppppppppppppppppppppppooooooooooooooooonnnnnnnnnnmmmmmmmmmllllllllkkkkkkkjjjjjjiiiiiihhhhhhggggggfffffeeeeedddddcccccbbbbbaaaaa--..-
(PID.TID 0000.0001) //     49 -..--aaaaabbbbbcccccdddddeeeeeefffffgggggghhhhhhiiiiiijjjjjjkkkkkkkkllllllllmmmmmmmmmnnnnnnnnnnnnooooooooooooooooooooooppppppppppppppoooooooooooooooooooooonnnnnnnnnnnnmmmmmmmmmllllllllkkkkkkkkjjjjjjiiiiiihhhhhhggggggfffffeeeeeedddddcccccbbbbbaaaaa--..-
(PID.TID 0000.0001) //     48 -..--aaaaabbbbbcccccddddddeeeeeffffffgggggghhhhhhiiiiiijjjjjjjkkkkkkklllllllllmmmmmmmmmmnnnnnnnnnnnnnoooooooooooooooooooooooooooooooooooooooooooooooooonnnnnnnnnnnnnmmmmmmmmmmlllllllllkkkkkkkjjjjjjjiiiiiihhhhhhggggggffffffeeeeeddddddcccccbbbbbaaaaa--..-
(PID.TID 0000.0001) //     47 -..--aaaaabbbbbccccccdddddeeeeeefffffgggggghhhhhhhiiiiiijjjjjjjkkkkkkkklllllllllmmmmmmmmmmnnnnnnnnnnnnnnnnoooooooooooooooooooooooooooooooooooooooonnnnnnnnnnnnnnnnmmmmmmmmmmlllllllllkkkkkkkkjjjjjjjiiiiiihhhhhhhggggggfffffeeeeeedddddccccccbbbbbaaaaa--..-
(PID.TID 0000.0001) //     46 -..--aaaaabbbbbbcccccddddddeeeeeffffffgggggghhhhhhhiiiiiijjjjjjjjkkkkkkkklllllllllmmmmmmmmmmmmnnnnnnnnnnnnnnnnnnnoooooooooooooooooooooooooonnnnnnnnnnnnnnnnnnnmmmmmmmmmmmmlllllllllkkkkkkkkjjjjjjjjiiiiiihhhhhhhggggggffffffeeeeeddddddcccccbbbbbbaaaaa--..-
(PID.TID 0000.0001) //     45 -..--aaaaabbbbbbcccccddddddeeeeeeffffffgggggghhhhhhhiiiiiiijjjjjjjkkkkkkkkkllllllllllmmmmmmmmmmmmmnnnnnnnnnnnnnnnnnnnnnnnnnnnnnnnnnnnnnnnnnnnnnnnnnnnnnnnnmmmmmmmmmmmmmllllllllllkkkkkkkkkjjjjjjjiiiiiiihhhhhhhggggggffffffeeeeeeddddddcccccbbbbbbaaaaa--..-
(PID.TID 0000.0001) //     44 -..--aaaaabbbbbbccccccddddddeeeeeeffffffgggggghhhhhhhiiiiiiijjjjjjjjkkkkkkkkklllllllllllmmmmmmmmmmmmmmnnnnnnnnnnnnnnnnnnnnnnnnnnnnnnnnnnnnnnnnnnnnnnnnmmmmmmmmmmmmmmlllllllllllkkkkkkkkkjjjjjjjjiiiiiiihhhhhhhggggggffffffeeeeeeddddddccccccbbbbbbaaaaa--..-
(PID.TID 0000.0001) //     43 -..--aaaaaabbbbbccccccddddddeeeeeefffffffgggggghhhhhhhiiiiiiiijjjjjjjjkkkkkkkkkllllllllllllmmmmmmmmmmmmmmmmmnnnnnnnnnnnnnnnnnnnnnnnnnnnnnnnnnnnnmmmmmmmmmmmmmmmmmllllllllllllkkkkkkkkkjjjjjjjjiiiiiiiihhhhhhhggggggfffffffeeeeeeddddddccccccbbbbbaaaaaa--..-
(PID.TID 0000.0001) //     42 -..--aaaaaabbbbbbccccccddddddeeeeeefffffffgggggghhhhhhhhiiiiiiijjjjjjjjjkkkkkkkkkklllllllllllllmmmmmmmmmmmmmmmmmmmmmmmmmnnnnnnnnnnnnmmmmmmmmmmmmmmmmmmmmmmmmmlllllllllllllkkkkkkkkkkjjjjjjjjjiiiiiiihhhhhhhhggggggfffffffeeeeeeddddddccccccbbbbbbaaaaaa--..-
(PID.TID 0000.0001) //     41 -..--aaaaaabbbbbbccccccddddddeeeeeeefffffffggggggghhhhhhhiiiiiiiijjjjjjjjjkkkkkkkkkkkllllllllllllllmmmmmmmmmmmmmmmmmmmmmmmmmmmmmmmmmmmmmmmmmmmmmmmmmmmmmmllllllllllllllkkkkkkkkkkkjjjjjjjjjiiiiiiiihhhhhhhgggggggfffffffeeeeeeeddddddccccccbbbbbbaaaaaa--..-
(PID.TID 0000.0001) //     40 -..--aaaaaabbbbbbcccccccddddddeeeeeeefffffffggggggghhhhhhhhiiiiiiiijjjjjjjjjjkkkkkkkkkkklllllllllllllllllmmmmmmmmmmmmmmmmmmmmmmmmmmmmmmmmmmmmmmmmmmlllllllllllllllllkkkkkkkkkkkjjjjjjjjjjiiiiiiiihhhhhhhhgggggggfffffffeeeeeeeddddddcccccccbbbbbbaaaaaa--..-
(PID.TID 0000.0001) //     39 -..--aaaaaabbbbbbbccccccdddddddeeeeeeefffffffggggggghhhhhhhhiiiiiiiiijjjjjjjjjjkkkkkkkkkkkkkllllllllllllllllllllllmmmmmmmmmmmmmmmmmmmmmmmmllllllllllllllllllllllkkkkkkkkkkkkkjjjjjjjjjjiiiiiiiiihhhhhhhhgggggggfffffffeeeeeeedddddddccccccbbbbbbbaaaaaa--..-
(PID.TID 0000.0001) //     38 -..--aaaaaaabbbbbbcccccccddddddeeeeeeeffffffffgggggggghhhhhhhhiiiiiiiiijjjjjjjjjjjkkkkkkkkkkkkkkkllllllllllllllllllllllllllllllllllllllllllllllllllllllllllkkkkkkkkkkkkkkkjjjjjjjjjjjiiiiiiiiihhhhhhhhggggggggffffffffeeeeeeeddddddcccccccbbbbbbaaaaaaa--..-
(PID.TID 0000.0001) //     37 -..--aaaaaaabbbbbbbccccccdddddddeeeeeeeffffffffgggggggghhhhhhhhhiiiiiiiiiijjjjjjjjjjjjkkkkkkkkkkkkkkkkllllllllllllllllllllllllllllllllllllllllllllllllkkkkkkkkkkkkkkkkjjjjjjjjjjjjiiiiiiiiiihhhhhhhhhggggggggffffffffeeeeeeedddddddccccccbbbbbbbaaaaaaa--..-
(PID.TID 0000.0001) //     36 -..--aaaaaaabbbbbbbcccccccdddddddeeeeeeeefffffffggggggggghhhhhhhhhiiiiiiiiiiijjjjjjjjjjjjjkkkkkkkkkkkkkkkkkkkkllllllllllllllllllllllllllllllllkkkkkkkkkkkkkkkkkkkkjjjjjjjjjjjjjiiiiiiiiiiihhhhhhhhhgggggggggfffffffeeeeeeeedddddddcccccccbbbbbbbaaaaaaa--..-
(PID.TID 0000.0001) //     35 -..---aaaaaabbbbbbbccccccccdddddddeeeeeeeeffffffffggggggggghhhhhhhhhiiiiiiiiiiiijjjjjjjjjjjjjjkkkkkkkkkkkkkkkkkkkkkkkkkkkkkkkkkkkkkkkkkkkkkkkkkkkkkkkkkkkkkkkkjjjjjjjjjjjjjjiiiiiiiiiiiihhhhhhhhhgggggggggffffffffeeeeeeeedddddddccccccccbbbbbbbaaaaaa---..-
(PID.TID 0000.0001) //     34 -..---aaaaaaabbbbbbbcccccccddddddddeeeeeeeeffffffffgggggggggghhhhhhhhhhiiiiiiiiiiiijjjjjjjjjjjjjjjjjkkkkkkkkkkkkkkkkkkkkkkkkkkkkkkkkkkkkkkkkkkkkkkkkkkkkjjjjjjjjjjjjjjjjjiiiiiiiiiiiihhhhhhhhhhggggggggggffffffffeeeeeeeeddddddddcccccccbbbbbbbaaaaaaa---..-
(PID.TID 0000.0001) //     33 -..---aaaaaaabbbbbbbccccccccddddddddeeeeeeeefffffffffgggggggggghhhhhhhhhhhiiiiiiiiiiiiijjjjjjjjjjjjjjjjjjjjkkkkkkkkkkkkkkkkkkkkkkkkkkkkkkkkkkkkkkjjjjjjjjjjjjjjjjjjjjiiiiiiiiiiiiihhhhhhhhhhhggggggggggfffffffffeeeeeeeeddddddddccccccccbbbbbbbaaaaaaa---..-
(PID.TID 0000.0001) //     32 -..---aaaaaaabbbbbbbbccccccccddddddddeeeeeeeeefffffffffgggggggggghhhhhhhhhhhhiiiiiiiiiiiiiiijjjjjjjjjjjjjjjjjjjjjjjjjjjjjjjjjjjjjjjjjjjjjjjjjjjjjjjjjjjjjjjjjjjjiiiiiiiiiiiiiiihhhhhhhhhhhhggggggggggfffffffffeeeeeeeeeddddddddccccccccbbbbbbbbaaaaaaa---..-
(PID.TID 0000.0001) //     31 -..---aaaaaaaabbbbbbbbccccccccddddddddeeeeeeeeeffffffffffggggggggggghhhhhhhhhhhhiiiiiiiiiiiiiiiiijjjjjjjjjjjjjjjjjjjjjjjjjjjjjjjjjjjjjjjjjjjjjjjjjjjjjjjjjjiiiiiiiiiiiiiiiiihhhhhhhhhhhhgggggggggggffffffffffeeeeeeeeeddddddddccccccccbbbbbbbbaaaaaaaa---..-
(PID.TID 0000.0001) //     30 -..---aaaaaaaabbbbbbbbcccccccccddddddddeeeeeeeeeeffffffffffggggggggggghhhhhhhhhhhhhhiiiiiiiiiiiiiiiiiiiiijjjjjjjjjjjjjjjjjjjjjjjjjjjjjjjjjjjjjjjjjjiiiiiiiiiiiiiiiiiiiiihhhhhhhhhhhhhhgggggggggggffffffffffeeeeeeeeeeddddddddcccccccccbbbbbbbbaaaaaaaa---..-
(PID.TID 0000.0001) //     29 -..---aaaaaaaaabbbbbbbbcccccccccdddddddddeeeeeeeeeeffffffffffggggggggggggghhhhhhhhhhhhhhhiiiiiiiiiiiiiiiiiiiiiiiiiiiiiiijjjjjjjjjjjjiiiiiiiiiiiiiiiiiiiiiiiiiiiiiiihhhhhhhhhhhhhhhgggggggggggggffffffffffeeeeeeeeeedddddddddcccccccccbbbbbbbbaaaaaaaaa---..-
(PID.TID 0000.0001) //     28 -..---aaaaaaaaabbbbbbbbbcccccccccdddddddddeeeeeeeeeeefffffffffffggggggggggggghhhhhhhhhhhhhhhhhhiiiiiiiiiiiiiiiiiiiiiiiiiiiiiiiiiiiiiiiiiiiiiiiiiiiiiiiiiiiiiihhhhhhhhhhhhhhhhhhgggggggggggggfffffffffffeeeeeeeeeeedddddddddcccccccccbbbbbbbbbaaaaaaaaa---..-
(PID.TID 0000.0001) //     27 -..----aaaaaaaabbbbbbbbbbcccccccccddddddddddeeeeeeeeeeeffffffffffffgggggggggggggghhhhhhhhhhhhhhhhhhhhhhiiiiiiiiiiiiiiiiiiiiiiiiiiiiiiiiiiiiiiiiiiiiiihhhhhhhhhhhhhhhhhhhhhhggggggggggggggffffffffffffeeeeeeeeeeeddddddddddcccccccccbbbbbbbbbbaaaaaaaa----..-
[...]
(PID.TID 0000.0001) %MON vort_p_mean                  =                   NaN
(PID.TID 0000.0001) %MON vort_p_sd                    =   0.0000000000000E+00
(PID.TID 0000.0001) %MON surfExpan_theta_mean         =                   NaN
(PID.TID 0000.0001) %MON surfExpan_salt_mean          =                   NaN
(PID.TID 0000.0001) // =======================================================
(PID.TID 0000.0001) // End MONITOR dynamic field statistics
(PID.TID 0000.0001) // =======================================================
 cg2d: Sum(rhs),rhsMax =                    NaN  0.00000000000000E+00
 cg2d: Sum(rhs),rhsMax =                    NaN  0.00000000000000E+00
 cg2d: Sum(rhs),rhsMax =                    NaN  0.00000000000000E+00
 cg2d: Sum(rhs),rhsMax =                    NaN  0.00000000000000E+00
 cg2d: Sum(rhs),rhsMax =                    NaN  0.00000000000000E+00
 cg2d: Sum(rhs),rhsMax =                    NaN  0.00000000000000E+00
 cg2d: Sum(rhs),rhsMax =                    NaN  0.00000000000000E+00
(PID.TID 0000.0001)      cg2d_init_res =                    NaN
(PID.TID 0000.0001)      cg2d_iters(min,last) =      -1    1000
(PID.TID 0000.0001)      cg2d_last_res =                    NaN
(PID.TID 0000.0001) // =======================================================
(PID.TID 0000.0001) // Begin MONITOR dynamic field statistics
(PID.TID 0000.0001) // =======================================================
(PID.TID 0000.0001) %MON time_tsnumber                =                   209
(PID.TID 0000.0001) %MON time_secondsf                =   2.5080000000000E+06
(PID.TID 0000.0001) %MON dynstat_eta_max              =                   NaN
(PID.TID 0000.0001) %MON dynstat_eta_min              =                   NaN
(PID.TID 0000.0001) %MON dynstat_eta_mean             =                   NaN
(PID.TID 0000.0001) %MON dynstat_eta_sd               =                   NaN
(PID.TID 0000.0001) %MON dynstat_eta_del2             =                   NaN
(PID.TID 0000.0001) %MON dynstat_uvel_max             =                   NaN
(PID.TID 0000.0001) %MON dynstat_uvel_min             =                   NaN
(PID.TID 0000.0001) %MON dynstat_uvel_mean            =                   NaN
(PID.TID 0000.0001) %MON dynstat_uvel_sd              =                   NaN
(PID.TID 0000.0001) %MON dynstat_uvel_del2            =                   NaN
(PID.TID 0000.0001) %MON dynstat_vvel_max             =                   NaN
(PID.TID 0000.0001) %MON dynstat_vvel_min             =                   NaN
(PID.TID 0000.0001) %MON dynstat_vvel_mean            =                   NaN
(PID.TID 0000.0001) %MON dynstat_vvel_sd              =                   NaN
(PID.TID 0000.0001) %MON dynstat_vvel_del2            =                   NaN
(PID.TID 0000.0001) %MON dynstat_wvel_max             =                   NaN
(PID.TID 0000.0001) %MON dynstat_wvel_min             =                   NaN
(PID.TID 0000.0001) %MON dynstat_wvel_mean            =                   NaN
(PID.TID 0000.0001) %MON dynstat_wvel_sd              =                   NaN
(PID.TID 0000.0001) %MON dynstat_wvel_del2            =                   NaN
(PID.TID 0000.0001) %MON dynstat_theta_max            =   2.0000000000000E+01
(PID.TID 0000.0001) %MON dynstat_theta_min            =   2.0000000000000E+01
(PID.TID 0000.0001) %MON dynstat_theta_mean           =   1.9999999999999E+01
(PID.TID 0000.0001) %MON dynstat_theta_sd             =   1.1972645097557E-12
(PID.TID 0000.0001) %MON dynstat_theta_del2           =   0.0000000000000E+00
(PID.TID 0000.0001) %MON dynstat_salt_max             =   3.0000000000000E+01
(PID.TID 0000.0001) %MON dynstat_salt_min             =   3.0000000000000E+01
(PID.TID 0000.0001) %MON dynstat_salt_mean            =   2.9999999999998E+01
(PID.TID 0000.0001) %MON dynstat_salt_sd              =   2.1529444893531E-12
(PID.TID 0000.0001) %MON dynstat_salt_del2            =   0.0000000000000E+00
(PID.TID 0000.0001) %MON trAdv_CFL_u_max              =   0.0000000000000E+00
(PID.TID 0000.0001) %MON trAdv_CFL_v_max              =   0.0000000000000E+00
(PID.TID 0000.0001) %MON trAdv_CFL_w_max              =   0.0000000000000E+00
(PID.TID 0000.0001) %MON advcfl_uvel_max              =                   NaN
(PID.TID 0000.0001) %MON advcfl_vvel_max              =                   NaN
(PID.TID 0000.0001) %MON advcfl_wvel_max              =                   NaN
(PID.TID 0000.0001) %MON advcfl_W_hf_max              =   0.0000000000000E+00
(PID.TID 0000.0001) %MON pe_b_mean                    =                   NaN
(PID.TID 0000.0001) %MON ke_max                       =                   NaN
(PID.TID 0000.0001) %MON ke_mean                      =                   NaN
(PID.TID 0000.0001) %MON ke_vol                       =   7.2529629296391E+15
(PID.TID 0000.0001) %MON vort_r_min                   =                   NaN
(PID.TID 0000.0001) %MON vort_r_max                   =                   NaN
(PID.TID 0000.0001) %MON vort_a_mean                  =                   NaN
(PID.TID 0000.0001) %MON vort_a_sd                    =                   NaN
(PID.TID 0000.0001) %MON vort_p_mean                  =                   NaN
(PID.TID 0000.0001) %MON vort_p_sd                    =   0.0000000000000E+00
(PID.TID 0000.0001) %MON surfExpan_theta_mean         =                   NaN
(PID.TID 0000.0001) %MON surfExpan_salt_mean          =                   NaN
(PID.TID 0000.0001) // =======================================================
(PID.TID 0000.0001) // End MONITOR dynamic field statistics
(PID.TID 0000.0001) // =======================================================
 cg2d: Sum(rhs),rhsMax =                    NaN  0.00000000000000E+00
 cg2d: Sum(rhs),rhsMax =                    NaN  0.00000000000000E+00
 cg2d: Sum(rhs),rhsMax =                    NaN  0.00000000000000E+00
 cg2d: Sum(rhs),rhsMax =                    NaN  0.00000000000000E+00
 cg2d: Sum(rhs),rhsMax =                    NaN  0.00000000000000E+00
 cg2d: Sum(rhs),rhsMax =                    NaN  0.00000000000000E+00
 cg2d: Sum(rhs),rhsMax =                    NaN  0.00000000000000E+00
(PID.TID 0000.0001)      cg2d_init_res =                    NaN
(PID.TID 0000.0001)      cg2d_iters(min,last) =      -1    1000
(PID.TID 0000.0001)      cg2d_last_res =                    NaN
(PID.TID 0000.0001) // =======================================================
(PID.TID 0000.0001) // Begin MONITOR dynamic field statistics
(PID.TID 0000.0001) // =======================================================
(PID.TID 0000.0001) %MON time_tsnumber                =                   216
(PID.TID 0000.0001) %MON time_secondsf                =   2.5920000000000E+06
(PID.TID 0000.0001) %MON dynstat_eta_max              =                   NaN
(PID.TID 0000.0001) %MON dynstat_eta_min              =                   NaN
(PID.TID 0000.0001) %MON dynstat_eta_mean             =                   NaN
(PID.TID 0000.0001) %MON dynstat_eta_sd               =                   NaN
(PID.TID 0000.0001) %MON dynstat_eta_del2             =                   NaN
(PID.TID 0000.0001) %MON dynstat_uvel_max             =                   NaN
(PID.TID 0000.0001) %MON dynstat_uvel_min             =                   NaN
(PID.TID 0000.0001) %MON dynstat_uvel_mean            =                   NaN
(PID.TID 0000.0001) %MON dynstat_uvel_sd              =                   NaN
(PID.TID 0000.0001) %MON dynstat_uvel_del2            =                   NaN
(PID.TID 0000.0001) %MON dynstat_vvel_max             =                   NaN
(PID.TID 0000.0001) %MON dynstat_vvel_min             =                   NaN
(PID.TID 0000.0001) %MON dynstat_vvel_mean            =                   NaN
(PID.TID 0000.0001) %MON dynstat_vvel_sd              =                   NaN
(PID.TID 0000.0001) %MON dynstat_vvel_del2            =                   NaN
(PID.TID 0000.0001) %MON dynstat_wvel_max             =                   NaN
(PID.TID 0000.0001) %MON dynstat_wvel_min             =                   NaN
(PID.TID 0000.0001) %MON dynstat_wvel_mean            =                   NaN
(PID.TID 0000.0001) %MON dynstat_wvel_sd              =                   NaN
(PID.TID 0000.0001) %MON dynstat_wvel_del2            =                   NaN
(PID.TID 0000.0001) %MON dynstat_theta_max            =   2.0000000000000E+01
(PID.TID 0000.0001) %MON dynstat_theta_min            =   2.0000000000000E+01
(PID.TID 0000.0001) %MON dynstat_theta_mean           =   1.9999999999999E+01
(PID.TID 0000.0001) %MON dynstat_theta_sd             =   1.1972645097557E-12
(PID.TID 0000.0001) %MON dynstat_theta_del2           =   0.0000000000000E+00
(PID.TID 0000.0001) %MON dynstat_salt_max             =   3.0000000000000E+01
(PID.TID 0000.0001) %MON dynstat_salt_min             =   3.0000000000000E+01
(PID.TID 0000.0001) %MON dynstat_salt_mean            =   2.9999999999998E+01
(PID.TID 0000.0001) %MON dynstat_salt_sd              =   2.1529444893531E-12
(PID.TID 0000.0001) %MON dynstat_salt_del2            =   0.0000000000000E+00
(PID.TID 0000.0001) %MON trAdv_CFL_u_max              =   0.0000000000000E+00
(PID.TID 0000.0001) %MON trAdv_CFL_v_max              =   0.0000000000000E+00
(PID.TID 0000.0001) %MON trAdv_CFL_w_max              =   0.0000000000000E+00
(PID.TID 0000.0001) %MON advcfl_uvel_max              =                   NaN
(PID.TID 0000.0001) %MON advcfl_vvel_max              =                   NaN
(PID.TID 0000.0001) %MON advcfl_wvel_max              =                   NaN
(PID.TID 0000.0001) %MON advcfl_W_hf_max              =   0.0000000000000E+00
(PID.TID 0000.0001) %MON pe_b_mean                    =                   NaN
(PID.TID 0000.0001) %MON ke_max                       =                   NaN
(PID.TID 0000.0001) %MON ke_mean                      =                   NaN
(PID.TID 0000.0001) %MON ke_vol                       =   7.2529629296391E+15
(PID.TID 0000.0001) %MON vort_r_min                   =                   NaN
(PID.TID 0000.0001) %MON vort_r_max                   =                   NaN
(PID.TID 0000.0001) %MON vort_a_mean                  =                   NaN
(PID.TID 0000.0001) %MON vort_a_sd                    =                   NaN
(PID.TID 0000.0001) %MON vort_p_mean                  =                   NaN
(PID.TID 0000.0001) %MON vort_p_sd                    =   0.0000000000000E+00
(PID.TID 0000.0001) %MON surfExpan_theta_mean         =                   NaN
(PID.TID 0000.0001) %MON surfExpan_salt_mean          =                   NaN
(PID.TID 0000.0001) // =======================================================
(PID.TID 0000.0001) // End MONITOR dynamic field statistics
(PID.TID 0000.0001) // =======================================================
(PID.TID 0000.0001) %CHECKPOINT       216 ckptA
(PID.TID 0000.0001)   Seconds in section "ALL                    [THE_MODEL_MAIN]":
(PID.TID 0000.0001)           User time:   254.988071119413
(PID.TID 0000.0001)         System time:  0.000000000000000E+000
(PID.TID 0000.0001)     Wall clock time:   259.281762123108
(PID.TID 0000.0001)          No. starts:           1
(PID.TID 0000.0001)           No. stops:           1
(PID.TID 0000.0001)   Seconds in section "INITIALISE_FIXED       [THE_MODEL_MAIN]":
(PID.TID 0000.0001)           User time:  9.724199771881104E-002
(PID.TID 0000.0001)         System time:  0.000000000000000E+000
(PID.TID 0000.0001)     Wall clock time:  0.346922874450684
(PID.TID 0000.0001)          No. starts:           1
(PID.TID 0000.0001)           No. stops:           1
(PID.TID 0000.0001)   Seconds in section "THE_MAIN_LOOP          [THE_MODEL_MAIN]":
(PID.TID 0000.0001)           User time:   254.890777863562
(PID.TID 0000.0001)         System time:  0.000000000000000E+000
(PID.TID 0000.0001)     Wall clock time:   258.934777975082
(PID.TID 0000.0001)          No. starts:           1
(PID.TID 0000.0001)           No. stops:           1
(PID.TID 0000.0001)   Seconds in section "INITIALISE_VARIA    [THE_MAIN_LOOP]":
(PID.TID 0000.0001)           User time:  4.132799804210663E-002
(PID.TID 0000.0001)         System time:  0.000000000000000E+000
(PID.TID 0000.0001)     Wall clock time:  0.111828804016113
(PID.TID 0000.0001)          No. starts:           1
(PID.TID 0000.0001)           No. stops:           1
(PID.TID 0000.0001)   Seconds in section "MAIN LOOP           [THE_MAIN_LOOP]":
(PID.TID 0000.0001)           User time:   254.849399596453
(PID.TID 0000.0001)         System time:  0.000000000000000E+000
(PID.TID 0000.0001)     Wall clock time:   258.822879076004
(PID.TID 0000.0001)          No. starts:           1
(PID.TID 0000.0001)           No. stops:           1
(PID.TID 0000.0001)   Seconds in section "MAIN_DO_LOOP        [THE_MAIN_LOOP]":
(PID.TID 0000.0001)           User time:   254.847174361348
(PID.TID 0000.0001)         System time:  0.000000000000000E+000
(PID.TID 0000.0001)     Wall clock time:   258.820460081100
(PID.TID 0000.0001)          No. starts:         216
(PID.TID 0000.0001)           No. stops:         216
(PID.TID 0000.0001)   Seconds in section "FORWARD_STEP        [MAIN_DO_LOOP]":
(PID.TID 0000.0001)           User time:   254.842461153865
(PID.TID 0000.0001)         System time:  0.000000000000000E+000
(PID.TID 0000.0001)     Wall clock time:   258.815502166748
(PID.TID 0000.0001)          No. starts:         216
(PID.TID 0000.0001)           No. stops:         216
(PID.TID 0000.0001)   Seconds in section "LOAD_FIELDS_DRIVER  [FORWARD_STEP]":
(PID.TID 0000.0001)           User time:  6.872385740280151E-003
(PID.TID 0000.0001)         System time:  0.000000000000000E+000
(PID.TID 0000.0001)     Wall clock time:  7.277488708496094E-003
(PID.TID 0000.0001)          No. starts:         216
(PID.TID 0000.0001)           No. stops:         216
(PID.TID 0000.0001)   Seconds in section "EXTERNAL_FLDS_LOAD [LOAD_FLDS_DRIVER]":
(PID.TID 0000.0001)           User time:  2.234205603599548E-003
(PID.TID 0000.0001)         System time:  0.000000000000000E+000
(PID.TID 0000.0001)     Wall clock time:  2.446174621582031E-003
(PID.TID 0000.0001)          No. starts:         216
(PID.TID 0000.0001)           No. stops:         216
(PID.TID 0000.0001)   Seconds in section "DO_ATMOSPHERIC_PHYS [FORWARD_STEP]":
(PID.TID 0000.0001)           User time:  2.155527472496033E-003
(PID.TID 0000.0001)         System time:  0.000000000000000E+000
(PID.TID 0000.0001)     Wall clock time:  2.431869506835938E-003
(PID.TID 0000.0001)          No. starts:         216
(PID.TID 0000.0001)           No. stops:         216
(PID.TID 0000.0001)   Seconds in section "DO_OCEANIC_PHYS     [FORWARD_STEP]":
(PID.TID 0000.0001)           User time:  0.458790034055710
(PID.TID 0000.0001)         System time:  0.000000000000000E+000
(PID.TID 0000.0001)     Wall clock time:  0.491357564926147
(PID.TID 0000.0001)          No. starts:         216
(PID.TID 0000.0001)           No. stops:         216
(PID.TID 0000.0001)   Seconds in section "THERMODYNAMICS      [FORWARD_STEP]":
(PID.TID 0000.0001)           User time:  0.254365622997284
(PID.TID 0000.0001)         System time:  0.000000000000000E+000
(PID.TID 0000.0001)     Wall clock time:  0.266545057296753
(PID.TID 0000.0001)          No. starts:         216
(PID.TID 0000.0001)           No. stops:         216
(PID.TID 0000.0001)   Seconds in section "DYNAMICS            [FORWARD_STEP]":
(PID.TID 0000.0001)           User time:   5.41936647891998
(PID.TID 0000.0001)         System time:  0.000000000000000E+000
(PID.TID 0000.0001)     Wall clock time:   5.52089905738831
(PID.TID 0000.0001)          No. starts:         216
(PID.TID 0000.0001)           No. stops:         216
(PID.TID 0000.0001)   Seconds in section "SOLVE_FOR_PRESSURE  [FORWARD_STEP]":
(PID.TID 0000.0001)           User time:   247.544106051326
(PID.TID 0000.0001)         System time:  0.000000000000000E+000
(PID.TID 0000.0001)     Wall clock time:   248.481389760971
(PID.TID 0000.0001)          No. starts:         216
(PID.TID 0000.0001)           No. stops:         216
(PID.TID 0000.0001)   Seconds in section "MOM_CORRECTION_STEP [FORWARD_STEP]":
(PID.TID 0000.0001)           User time:  0.375715762376785
(PID.TID 0000.0001)         System time:  0.000000000000000E+000
(PID.TID 0000.0001)     Wall clock time:  0.385631561279297
(PID.TID 0000.0001)          No. starts:         216
(PID.TID 0000.0001)           No. stops:         216
(PID.TID 0000.0001)   Seconds in section "INTEGR_CONTINUITY   [FORWARD_STEP]":
(PID.TID 0000.0001)           User time:  0.227746516466141
(PID.TID 0000.0001)         System time:  0.000000000000000E+000
(PID.TID 0000.0001)     Wall clock time:  0.237607717514038
(PID.TID 0000.0001)          No. starts:         216
(PID.TID 0000.0001)           No. stops:         216
(PID.TID 0000.0001)   Seconds in section "TRC_CORRECTION_STEP [FORWARD_STEP]":
(PID.TID 0000.0001)           User time:  2.412676811218262E-003
(PID.TID 0000.0001)         System time:  0.000000000000000E+000
(PID.TID 0000.0001)     Wall clock time:  2.352237701416016E-003
(PID.TID 0000.0001)          No. starts:         216
(PID.TID 0000.0001)           No. stops:         216
(PID.TID 0000.0001)   Seconds in section "BLOCKING_EXCHANGES  [FORWARD_STEP]":
(PID.TID 0000.0001)           User time:  2.670249342918396E-002
(PID.TID 0000.0001)         System time:  0.000000000000000E+000
(PID.TID 0000.0001)     Wall clock time:  2.735638618469238E-002
(PID.TID 0000.0001)          No. starts:         216
(PID.TID 0000.0001)           No. stops:         216
(PID.TID 0000.0001)   Seconds in section "MONITOR             [FORWARD_STEP]":
(PID.TID 0000.0001)           User time:  0.329068988561630
(PID.TID 0000.0001)         System time:  0.000000000000000E+000
(PID.TID 0000.0001)     Wall clock time:  0.366161108016968
(PID.TID 0000.0001)          No. starts:         216
(PID.TID 0000.0001)           No. stops:         216
(PID.TID 0000.0001)   Seconds in section "DO_THE_MODEL_IO     [FORWARD_STEP]":
(PID.TID 0000.0001)           User time:  0.143845230340958
(PID.TID 0000.0001)         System time:  0.000000000000000E+000
(PID.TID 0000.0001)     Wall clock time:   2.87210345268250
(PID.TID 0000.0001)          No. starts:         216
(PID.TID 0000.0001)           No. stops:         216
(PID.TID 0000.0001)   Seconds in section "DO_WRITE_PICKUP     [FORWARD_STEP]":
(PID.TID 0000.0001)           User time:  1.309183239936829E-002
(PID.TID 0000.0001)         System time:  0.000000000000000E+000
(PID.TID 0000.0001)     Wall clock time:  0.120043039321899
(PID.TID 0000.0001)          No. starts:         216
(PID.TID 0000.0001)           No. stops:         216
(PID.TID 0000.0001) // ======================================================
(PID.TID 0000.0001) // Tile <-> Tile communication statistics
(PID.TID 0000.0001) // ======================================================
(PID.TID 0000.0001) // o Tile number: 000001
(PID.TID 0000.0001) //         No. X exchanges =              0
(PID.TID 0000.0001) //            Max. X spins =              0
(PID.TID 0000.0001) //            Min. X spins =     1000000000
(PID.TID 0000.0001) //          Total. X spins =              0
(PID.TID 0000.0001) //            Avg. X spins =       0.00E+00
(PID.TID 0000.0001) //         No. Y exchanges =              0
(PID.TID 0000.0001) //            Max. Y spins =              0
(PID.TID 0000.0001) //            Min. Y spins =     1000000000
(PID.TID 0000.0001) //          Total. Y spins =              0
(PID.TID 0000.0001) //            Avg. Y spins =       0.00E+00
(PID.TID 0000.0001) // o Thread number: 000001
(PID.TID 0000.0001) //            No. barriers =        1163048
(PID.TID 0000.0001) //      Max. barrier spins =              1
(PID.TID 0000.0001) //      Min. barrier spins =              1
(PID.TID 0000.0001) //     Total barrier spins =        1163048
(PID.TID 0000.0001) //      Avg. barrier spins =       1.00E+00
PROGRAM MAIN: Execution ended Normally
