(PID.TID 0000.0001) 
(PID.TID 0000.0001) // ======================================================
(PID.TID 0000.0001) //                      MITgcm UV
(PID.TID 0000.0001) //                      =========
(PID.TID 0000.0001) // ======================================================
(PID.TID 0000.0001) // execution environment starting up...
(PID.TID 0000.0001) 
(PID.TID 0000.0001) // MITgcmUV version:  checkpoint67v
(PID.TID 0000.0001) // Build user:        eavesr
(PID.TID 0000.0001) // Build host:        atmlxint3
(PID.TID 0000.0001) // Build date:        Mon 15 Feb 15:18:47 GMT 2021
(PID.TID 0000.0001) 
(PID.TID 0000.0001) // =======================================================
(PID.TID 0000.0001) // Execution Environment parameter file "eedata"
(PID.TID 0000.0001) // =======================================================
(PID.TID 0000.0001) ># Example "eedata" file
(PID.TID 0000.0001) ># Lines beginning "#" are comments
(PID.TID 0000.0001) >#  nTx      :: No. threads per process in X
(PID.TID 0000.0001) >#  nTy      :: No. threads per process in Y
(PID.TID 0000.0001) ># debugMode :: print debug msg (sequence of S/R calls)
(PID.TID 0000.0001) > &EEPARMS
(PID.TID 0000.0001) > nTx=1,
(PID.TID 0000.0001) > nTy=1,
(PID.TID 0000.0001) > &
(PID.TID 0000.0001) ># Note: Some systems use & as the namelist terminator (as shown here).
(PID.TID 0000.0001) >#       Other systems use a / character.
(PID.TID 0000.0001) 
(PID.TID 0000.0001) // =======================================================
(PID.TID 0000.0001) // Computational Grid Specification ( see files "SIZE.h" )
(PID.TID 0000.0001) //                                  ( and "eedata"       )
(PID.TID 0000.0001) // =======================================================
(PID.TID 0000.0001)      nPx =    1 ; /* No. processes in X */
(PID.TID 0000.0001)      nPy =    1 ; /* No. processes in Y */
(PID.TID 0000.0001)      nSx =    1 ; /* No. tiles in X per process */
(PID.TID 0000.0001)      nSy =    1 ; /* No. tiles in Y per process */
(PID.TID 0000.0001)      sNx =  248 ; /* Tile size in X */
(PID.TID 0000.0001)      sNy =  248 ; /* Tile size in Y */
(PID.TID 0000.0001)      OLx =    2 ; /* Tile overlap distance in X */
(PID.TID 0000.0001)      OLy =    2 ; /* Tile overlap distance in Y */
(PID.TID 0000.0001)      nTx =    1 ; /* No. threads in X per process */
(PID.TID 0000.0001)      nTy =    1 ; /* No. threads in Y per process */
(PID.TID 0000.0001)       Nr =    1 ; /* No. levels in the vertical   */
(PID.TID 0000.0001)       Nx =  248 ; /* Total domain size in X ( = nPx*nSx*sNx ) */
(PID.TID 0000.0001)       Ny =  248 ; /* Total domain size in Y ( = nPy*nSy*sNy ) */
(PID.TID 0000.0001)   nTiles =    1 ; /* Total no. tiles per process ( = nSx*nSy ) */
(PID.TID 0000.0001)   nProcs =    1 ; /* Total no. processes ( = nPx*nPy ) */
(PID.TID 0000.0001) nThreads =    1 ; /* Total no. threads per process ( = nTx*nTy ) */
(PID.TID 0000.0001) usingMPI =    F ; /* Flag used to control whether MPI is in use */
(PID.TID 0000.0001)                   /*  note: To execute a program with MPI calls */
(PID.TID 0000.0001)                   /*  it must be launched appropriately e.g     */
(PID.TID 0000.0001)                   /*  "mpirun -np 64 ......"                    */
(PID.TID 0000.0001) useCoupler=   F ; /* Flag used to control communications with   */
(PID.TID 0000.0001)                   /*  other model components, through a coupler */
(PID.TID 0000.0001) useNest2W_parent =    F ;/* Control 2-W Nesting comm */
(PID.TID 0000.0001) useNest2W_child  =    F ;/* Control 2-W Nesting comm */
(PID.TID 0000.0001) debugMode =    F ; /* print debug msg. (sequence of S/R calls)  */
(PID.TID 0000.0001) printMapIncludesZeros=    F ; /* print zeros in Std.Output maps */
(PID.TID 0000.0001) maxLengthPrt1D=   65 /* maxLength of 1D array printed to StdOut */
(PID.TID 0000.0001) 
(PID.TID 0000.0001) // ======================================================
(PID.TID 0000.0001) // Mapping of tiles to threads
(PID.TID 0000.0001) // ======================================================
(PID.TID 0000.0001) // -o- Thread   1, tiles (   1:   1,   1:   1)
(PID.TID 0000.0001) 
(PID.TID 0000.0001) // ======================================================
(PID.TID 0000.0001) // Tile <-> Tile connectvity table
(PID.TID 0000.0001) // ======================================================
(PID.TID 0000.0001) // Tile number: 000001 (process no. = 000000)
(PID.TID 0000.0001) //        WEST: Tile = 000001, Process = 000000, Comm = put
(PID.TID 0000.0001) //                bi = 000001, bj = 000001
(PID.TID 0000.0001) //        EAST: Tile = 000001, Process = 000000, Comm = put
(PID.TID 0000.0001) //                bi = 000001, bj = 000001
(PID.TID 0000.0001) //       SOUTH: Tile = 000001, Process = 000000, Comm = put
(PID.TID 0000.0001) //                bi = 000001, bj = 000001
(PID.TID 0000.0001) //       NORTH: Tile = 000001, Process = 000000, Comm = put
(PID.TID 0000.0001) //                bi = 000001, bj = 000001
(PID.TID 0000.0001) 
(PID.TID 0000.0001)  INI_PARMS: opening model parameter file "data"
(PID.TID 0000.0001)  OPEN_COPY_DATA_FILE: opening file data
(PID.TID 0000.0001) // =======================================================
(PID.TID 0000.0001) // Parameter file "data"
(PID.TID 0000.0001) // =======================================================
(PID.TID 0000.0001) ># Model parameters
(PID.TID 0000.0001) ># Continuous equation parameters
(PID.TID 0000.0001) > &PARM01
(PID.TID 0000.0001) > viscAh=4.E2,
(PID.TID 0000.0001) > f0=1.E-4,
(PID.TID 0000.0001) > beta=1.E-11,
(PID.TID 0000.0001) > rhoConst=1000.,
(PID.TID 0000.0001) > gBaro=9.81,
(PID.TID 0000.0001) > rigidLid=.FALSE.,
(PID.TID 0000.0001) > implicitFreeSurface=.TRUE.,
(PID.TID 0000.0001) ># momAdvection=.FALSE.,
(PID.TID 0000.0001) > tempStepping=.FALSE.,
(PID.TID 0000.0001) > saltStepping=.FALSE.,
(PID.TID 0000.0001) > useSingleCpuIO=.TRUE.,
(PID.TID 0000.0001) > hFacMin=0.1,
(PID.TID 0000.0001) > &
(PID.TID 0000.0001) >
(PID.TID 0000.0001) ># Elliptic solver parameters
(PID.TID 0000.0001) > &PARM02
(PID.TID 0000.0001) > cg2dTargetResidual=1.E-7,
(PID.TID 0000.0001) > cg2dMaxIters=1000,
(PID.TID 0000.0001) > &
(PID.TID 0000.0001) >
(PID.TID 0000.0001) ># Time stepping parameters
(PID.TID 0000.0001) > &PARM03
(PID.TID 0000.0001) > nIter0=0,
(PID.TID 0000.0001) > nTimeSteps=21600,
(PID.TID 0000.0001) > deltaT=1200.0,
(PID.TID 0000.0001) > pChkptFreq=31104000.0,
(PID.TID 0000.0001) > chkptFreq=25920000.0,
(PID.TID 0000.0001) > dumpFreq=86400.0,
(PID.TID 0000.0001) > monitorFreq=86400.,
(PID.TID 0000.0001) > monitorSelect=2,
(PID.TID 0000.0001) >#-for longer run (3.0 yr):
(PID.TID 0000.0001) ># nTimeSteps=77760,
(PID.TID 0000.0001) ># monitorFreq=864000.,
(PID.TID 0000.0001) > &
(PID.TID 0000.0001) >
(PID.TID 0000.0001) ># Gridding parameters
(PID.TID 0000.0001) > &PARM04
(PID.TID 0000.0001) > usingCartesianGrid=.TRUE.,
(PID.TID 0000.0001) > delX=248*5.E3,
(PID.TID 0000.0001) > delY=248*5.E3,
(PID.TID 0000.0001) > xgOrigin=-5.E3,
(PID.TID 0000.0001) > ygOrigin=-5.E3,
(PID.TID 0000.0001) > delR=5000.,
(PID.TID 0000.0001) > &
(PID.TID 0000.0001) >
(PID.TID 0000.0001) ># Input datasets
(PID.TID 0000.0001) > &PARM05
(PID.TID 0000.0001) > bathyFile='bathy.bin'
(PID.TID 0000.0001) > zonalWindFile='wind.bin',
(PID.TID 0000.0001) >#zonalWindFile='windx_siny.bin',
(PID.TID 0000.0001) > meridWindFile=,
(PID.TID 0000.0001) > &
(PID.TID 0000.0001) 
(PID.TID 0000.0001)  INI_PARMS ; starts to read PARM01
(PID.TID 0000.0001)  INI_PARMS ; read PARM01 : OK
(PID.TID 0000.0001)  INI_PARMS ; starts to read PARM02
(PID.TID 0000.0001)  INI_PARMS ; read PARM02 : OK
(PID.TID 0000.0001)  INI_PARMS ; starts to read PARM03
(PID.TID 0000.0001)  INI_PARMS ; read PARM03 : OK
(PID.TID 0000.0001)  INI_PARMS ; starts to read PARM04
(PID.TID 0000.0001)  INI_PARMS ; read PARM04 : OK
(PID.TID 0000.0001)  INI_PARMS ; starts to read PARM05
(PID.TID 0000.0001)  INI_PARMS ; read PARM05 : OK
(PID.TID 0000.0001)  INI_PARMS: finished reading file "data"
(PID.TID 0000.0001)  PACKAGES_BOOT: opening data.pkg
(PID.TID 0000.0001)  OPEN_COPY_DATA_FILE: opening file data.pkg
(PID.TID 0000.0001) // =======================================================
(PID.TID 0000.0001) // Parameter file "data.pkg"
(PID.TID 0000.0001) // =======================================================
(PID.TID 0000.0001) ># Packages
(PID.TID 0000.0001) > &PACKAGES
(PID.TID 0000.0001) > &
(PID.TID 0000.0001) 
(PID.TID 0000.0001)  PACKAGES_BOOT: finished reading data.pkg
(PID.TID 0000.0001)  PACKAGES_BOOT: On/Off package Summary
 --------  pkgs with a standard "usePKG" On/Off switch in "data.pkg":  --------
 -------- pkgs without standard "usePKG" On/Off switch in "data.pkg":  --------
 pkg/generic_advdiff      compiled but not used ( useGAD                   = F )
 pkg/mom_common           compiled   and   used ( momStepping              = T )
 pkg/mom_vecinv           compiled but not used ( +vectorInvariantMomentum = F )
 pkg/mom_fluxform         compiled   and   used ( & not vectorInvariantMom = T )
 pkg/monitor              compiled   and   used ( monitorFreq > 0.         = T )
 pkg/debug                compiled but not used ( debugMode                = F )
 pkg/rw                   compiled   and   used
 pkg/mdsio                compiled   and   used
(PID.TID 0000.0001)  PACKAGES_BOOT: End of package Summary
(PID.TID 0000.0001) 
(PID.TID 0000.0001) SET_PARMS: done
(PID.TID 0000.0001) Enter INI_VERTICAL_GRID: setInterFDr=    T ; setCenterDr=    F
(PID.TID 0000.0001) %MON XC_max                       =   1.2325000000000E+06
(PID.TID 0000.0001) %MON XC_min                       =  -2.5000000000000E+03
(PID.TID 0000.0001) %MON XC_mean                      =   6.1500000000000E+05
(PID.TID 0000.0001) %MON XC_sd                        =   3.5795425685414E+05
(PID.TID 0000.0001) %MON XG_max                       =   1.2300000000000E+06
(PID.TID 0000.0001) %MON XG_min                       =  -5.0000000000000E+03
(PID.TID 0000.0001) %MON XG_mean                      =   6.1250000000000E+05
(PID.TID 0000.0001) %MON XG_sd                        =   3.5795425685414E+05
(PID.TID 0000.0001) %MON DXC_max                      =   5.0000000000000E+03
(PID.TID 0000.0001) %MON DXC_min                      =   5.0000000000000E+03
(PID.TID 0000.0001) %MON DXC_mean                     =   5.0000000000000E+03
(PID.TID 0000.0001) %MON DXC_sd                       =   9.0949470177293E-13
(PID.TID 0000.0001) %MON DXF_max                      =   5.0000000000000E+03
(PID.TID 0000.0001) %MON DXF_min                      =   5.0000000000000E+03
(PID.TID 0000.0001) %MON DXF_mean                     =   5.0000000000000E+03
(PID.TID 0000.0001) %MON DXF_sd                       =   9.0949470177293E-13
(PID.TID 0000.0001) %MON DXG_max                      =   5.0000000000000E+03
(PID.TID 0000.0001) %MON DXG_min                      =   5.0000000000000E+03
(PID.TID 0000.0001) %MON DXG_mean                     =   5.0000000000000E+03
(PID.TID 0000.0001) %MON DXG_sd                       =   9.0949470177293E-13
(PID.TID 0000.0001) %MON DXV_max                      =   5.0000000000000E+03
(PID.TID 0000.0001) %MON DXV_min                      =   5.0000000000000E+03
(PID.TID 0000.0001) %MON DXV_mean                     =   5.0000000000000E+03
(PID.TID 0000.0001) %MON DXV_sd                       =   9.0949470177293E-13
(PID.TID 0000.0001) %MON YC_max                       =   1.2325000000000E+06
(PID.TID 0000.0001) %MON YC_min                       =  -2.5000000000000E+03
(PID.TID 0000.0001) %MON YC_mean                      =   6.1500000000000E+05
(PID.TID 0000.0001) %MON YC_sd                        =   3.5795425685414E+05
(PID.TID 0000.0001) %MON YG_max                       =   1.2300000000000E+06
(PID.TID 0000.0001) %MON YG_min                       =  -5.0000000000000E+03
(PID.TID 0000.0001) %MON YG_mean                      =   6.1250000000000E+05
(PID.TID 0000.0001) %MON YG_sd                        =   3.5795425685414E+05
(PID.TID 0000.0001) %MON DYC_max                      =   5.0000000000000E+03
(PID.TID 0000.0001) %MON DYC_min                      =   5.0000000000000E+03
(PID.TID 0000.0001) %MON DYC_mean                     =   5.0000000000000E+03
(PID.TID 0000.0001) %MON DYC_sd                       =   9.0949470177293E-13
(PID.TID 0000.0001) %MON DYF_max                      =   5.0000000000000E+03
(PID.TID 0000.0001) %MON DYF_min                      =   5.0000000000000E+03
(PID.TID 0000.0001) %MON DYF_mean                     =   5.0000000000000E+03
(PID.TID 0000.0001) %MON DYF_sd                       =   9.0949470177293E-13
(PID.TID 0000.0001) %MON DYG_max                      =   5.0000000000000E+03
(PID.TID 0000.0001) %MON DYG_min                      =   5.0000000000000E+03
(PID.TID 0000.0001) %MON DYG_mean                     =   5.0000000000000E+03
(PID.TID 0000.0001) %MON DYG_sd                       =   9.0949470177293E-13
(PID.TID 0000.0001) %MON DYU_max                      =   5.0000000000000E+03
(PID.TID 0000.0001) %MON DYU_min                      =   5.0000000000000E+03
(PID.TID 0000.0001) %MON DYU_mean                     =   5.0000000000000E+03
(PID.TID 0000.0001) %MON DYU_sd                       =   9.0949470177293E-13
(PID.TID 0000.0001) %MON RA_max                       =   2.5000000000000E+07
(PID.TID 0000.0001) %MON RA_min                       =   2.5000000000000E+07
(PID.TID 0000.0001) %MON RA_mean                      =   2.5000000000000E+07
(PID.TID 0000.0001) %MON RA_sd                        =   3.7252902984619E-09
(PID.TID 0000.0001) %MON RAW_max                      =   2.5000000000000E+07
(PID.TID 0000.0001) %MON RAW_min                      =   2.5000000000000E+07
(PID.TID 0000.0001) %MON RAW_mean                     =   2.5000000000000E+07
(PID.TID 0000.0001) %MON RAW_sd                       =   3.7252902984619E-09
(PID.TID 0000.0001) %MON RAS_max                      =   2.5000000000000E+07
(PID.TID 0000.0001) %MON RAS_min                      =   2.5000000000000E+07
(PID.TID 0000.0001) %MON RAS_mean                     =   2.5000000000000E+07
(PID.TID 0000.0001) %MON RAS_sd                       =   3.7252902984619E-09
(PID.TID 0000.0001) %MON RAZ_max                      =   2.5000000000000E+07
(PID.TID 0000.0001) %MON RAZ_min                      =   2.5000000000000E+07
(PID.TID 0000.0001) %MON RAZ_mean                     =   2.5000000000000E+07
(PID.TID 0000.0001) %MON RAZ_sd                       =   3.7252902984619E-09
(PID.TID 0000.0001) %MON AngleCS_max                  =   1.0000000000000E+00
(PID.TID 0000.0001) %MON AngleCS_min                  =   1.0000000000000E+00
(PID.TID 0000.0001) %MON AngleCS_mean                 =   1.0000000000000E+00
(PID.TID 0000.0001) %MON AngleCS_sd                   =   0.0000000000000E+00
(PID.TID 0000.0001) %MON AngleSN_max                  =   0.0000000000000E+00
(PID.TID 0000.0001) %MON AngleSN_min                  =   0.0000000000000E+00
(PID.TID 0000.0001) %MON AngleSN_mean                 =   0.0000000000000E+00
(PID.TID 0000.0001) %MON AngleSN_sd                   =   0.0000000000000E+00
(PID.TID 0000.0001)  MDS_READ_FIELD: opening global file: bathy.bin
(PID.TID 0000.0001) // =======================================================
(PID.TID 0000.0001) // Field Model R_low (ini_masks_etc)
(PID.TID 0000.0001) // CMIN =         -4.999819335937500E+03
(PID.TID 0000.0001) // CMAX =         -4.500020019531250E+03
(PID.TID 0000.0001) // CINT =          1.851108579282407E+01
(PID.TID 0000.0001) // SYMBOLS (CMIN->CMAX): -abcdefghijklmnopqrstuvwxyz+
(PID.TID 0000.0001) //                  0.0: .
(PID.TID 0000.0001) // RANGE I (Lo:Hi:Step):(    -1:   250:     1)
(PID.TID 0000.0001) // RANGE J (Lo:Hi:Step):(   250:    -1:    -1)
(PID.TID 0000.0001) // RANGE K (Lo:Hi:Step):(   1:   1:   1)
(PID.TID 0000.0001) // =======================================================
(PID.TID 0000.0001) K =   1
(PID.TID 0000.0001) //                I=8       I=18      I=28      I=38      I=48      I=58      I=68      I=78      I=88      I=98      I=108     I=118     I=128     I=138     I=148     I=158     I=168     I=178     I=188     I=198     I=208     I=218     I=228     I=238     I=248
(PID.TID 0000.0001) // |--J--|101234567|901234567|901234567|901234567|901234567|901234567|901234567|901234567|901234567|901234567|901234567|901234567|901234567|901234567|901234567|901234567|901234567|901234567|901234567|901234567|901234567|901234567|901234567|901234567|901234567|90
(PID.TID 0000.0001) //    250 -..------------------------------------------------------------------------------------------------------------------aaaaaaaaaaaaaaaaaa------------------------------------------------------------------------------------------------------------------..-
(PID.TID 0000.0001) //    249 ............................................................................................................................................................................................................................................................
(PID.TID 0000.0001) //    248 ............................................................................................................................................................................................................................................................
(PID.TID 0000.0001) //    247 -..------------------------------------------------------------------------------------------------------------------aaaaaaaaaaaaaaaaaa------------------------------------------------------------------------------------------------------------------..-
(PID.TID 0000.0001) //    246 -..-------------------------------------------------aaaaaaaaaaaaaaaaaaaaaaaaaaaaaaaaaaaaaaaaaaaaaaaaaaaaaaaaaaaaaaaaaaaaaaaaaaaaaaaaaaaaaaaaaaaaaaaaaaaaaaaaaaaaaaaaaaaaaaaaaaaaaaaaaaaaaaaaaaaaaaaaaaaa-------------------------------------------------..-
(PID.TID 0000.0001) //    245 -..----------------------------------aaaaaaaaaaaaaaaaaaaaaaaaaaaaaaaaaaaaaaaaaaaaaaaaaaaaaaaaaaaaaaaaaaaaaaaaaaaaaaaaaaaaaaaaaaaaaaaaaaaaaaaaaaaaaaaaaaaaaaaaaaaaaaaaaaaaaaaaaaaaaaaaaaaaaaaaaaaaaaaaaaaaaaaaaaaaaaaaaa----------------------------------..-
(PID.TID 0000.0001) //    244 -..--------------------------aaaaaaaaaaaaaaaaaaaaaaaaaaaaaaaaaaaaaaaaaaaaaaaaaaaaaaaaaaaaaaaaaaaaaaaaaaaaaaaaaabbbbbbbbbbbbbbbbbbbbbbbbbbbbbbaaaaaaaaaaaaaaaaaaaaaaaaaaaaaaaaaaaaaaaaaaaaaaaaaaaaaaaaaaaaaaaaaaaaaaaaaaaaaaaaaa--------------------------..-
(PID.TID 0000.0001) //    243 -..---------------------aaaaaaaaaaaaaaaaaaaaaaaaaaaaaaaaaaaaaaaaaaaaaaaaaaaabbbbbbbbbbbbbbbbbbbbbbbbbbbbbbbbbbbbbbbbbbbbbbbbbbbbbbbbbbbbbbbbbbbbbbbbbbbbbbbbbbbbbbbbbbbbbbbbbbbbaaaaaaaaaaaaaaaaaaaaaaaaaaaaaaaaaaaaaaaaaaaaaaaaaaaa---------------------..-
(PID.TID 0000.0001) //    242 -..-----------------aaaaaaaaaaaaaaaaaaaaaaaaaaaaaaaaaaaaaaaaabbbbbbbbbbbbbbbbbbbbbbbbbbbbbbbbbbbbbbbbbbbbbbbbbbbbbbbbbbbbbbbbbbbbbbbbbbbbbbbbbbbbbbbbbbbbbbbbbbbbbbbbbbbbbbbbbbbbbbbbbbbbbbbbbbaaaaaaaaaaaaaaaaaaaaaaaaaaaaaaaaaaaaaaaaa-----------------..-
(PID.TID 0000.0001) //    241 -..---------------aaaaaaaaaaaaaaaaaaaaaaaaaaaaaaaaaabbbbbbbbbbbbbbbbbbbbbbbbbbbbbbbbbbbbbbbbbbbbbbbbbbbbbbbbbbccccccccccccccccccccccccccccccccbbbbbbbbbbbbbbbbbbbbbbbbbbbbbbbbbbbbbbbbbbbbbbbbbbbbbbbbbbaaaaaaaaaaaaaaaaaaaaaaaaaaaaaaaaaa---------------..-
(PID.TID 0000.0001) //    240 -..-------------aaaaaaaaaaaaaaaaaaaaaaaaaaaaabbbbbbbbbbbbbbbbbbbbbbbbbbbbbbbbbbbbbbbccccccccccccccccccccccccccccccccccccccccccccccccccccccccccccccccccccccccccccccccccccbbbbbbbbbbbbbbbbbbbbbbbbbbbbbbbbbbbbbbbaaaaaaaaaaaaaaaaaaaaaaaaaaaaa-------------..-
(PID.TID 0000.0001) //    239 -..-----------aaaaaaaaaaaaaaaaaaaaaaaaaabbbbbbbbbbbbbbbbbbbbbbbbbbbbbbbbccccccccccccccccccccccccccccccccccccccccccccccccccccccccccccccccccccccccccccccccccccccccccccccccccccccccccccbbbbbbbbbbbbbbbbbbbbbbbbbbbbbbbbaaaaaaaaaaaaaaaaaaaaaaaaaa-----------..-
(PID.TID 0000.0001) //    238 -..----------aaaaaaaaaaaaaaaaaaaaaaabbbbbbbbbbbbbbbbbbbbbbbbbbbcccccccccccccccccccccccccccccccccccccccccccccccddddddddddddddddddddddddddddddddcccccccccccccccccccccccccccccccccccccccccccccccbbbbbbbbbbbbbbbbbbbbbbbbbbbaaaaaaaaaaaaaaaaaaaaaaa----------..-
(PID.TID 0000.0001) //    237 -..---------aaaaaaaaaaaaaaaaaaaaabbbbbbbbbbbbbbbbbbbbbbbbcccccccccccccccccccccccccccccccccddddddddddddddddddddddddddddddddddddddddddddddddddddddddddddddddddddddddcccccccccccccccccccccccccccccccccbbbbbbbbbbbbbbbbbbbbbbbbaaaaaaaaaaaaaaaaaaaaa---------..-
(PID.TID 0000.0001) //    236 -..--------aaaaaaaaaaaaaaaaaaaabbbbbbbbbbbbbbbbbbbbbccccccccccccccccccccccccccddddddddddddddddddddddddddddddddddddddddddddddddddddddddddddddddddddddddddddddddddddddddddddddddccccccccccccccccccccccccccbbbbbbbbbbbbbbbbbbbbbaaaaaaaaaaaaaaaaaaaa--------..-
(PID.TID 0000.0001) //    235 -..--------aaaaaaaaaaaaaaaaabbbbbbbbbbbbbbbbbbbbcccccccccccccccccccccccddddddddddddddddddddddddddddddddddddddddeeeeeeeeeeeeeeeeeeeeeeeeeeeeeeddddddddddddddddddddddddddddddddddddddddcccccccccccccccccccccccbbbbbbbbbbbbbbbbbbbbaaaaaaaaaaaaaaaaa--------..-
(PID.TID 0000.0001) //    234 -..-------aaaaaaaaaaaaaaaaabbbbbbbbbbbbbbbbbccccccccccccccccccccdddddddddddddddddddddddddddddeeeeeeeeeeeeeeeeeeeeeeeeeeeeeeeeeeeeeeeeeeeeeeeeeeeeeeeeeeeeeeeeeedddddddddddddddddddddddddddddccccccccccccccccccccbbbbbbbbbbbbbbbbbaaaaaaaaaaaaaaaaa-------..-
(PID.TID 0000.0001) //    233 -..-------aaaaaaaaaaaaaaabbbbbbbbbbbbbbbbcccccccccccccccccccdddddddddddddddddddddddeeeeeeeeeeeeeeeeeeeeeeeeeeeeeeeeeeeeeeeeeeeeeeeeeeeeeeeeeeeeeeeeeeeeeeeeeeeeeeeeeeeeeedddddddddddddddddddddddcccccccccccccccccccbbbbbbbbbbbbbbbbaaaaaaaaaaaaaaa-------..-
(PID.TID 0000.0001) //    232 -..------aaaaaaaaaaaaaaabbbbbbbbbbbbbbbccccccccccccccccdddddddddddddddddddddeeeeeeeeeeeeeeeeeeeeeeeeeeeeeeeeeeeffffffffffffffffffffffffffffffeeeeeeeeeeeeeeeeeeeeeeeeeeeeeeeeeeedddddddddddddddddddddccccccccccccccccbbbbbbbbbbbbbbbaaaaaaaaaaaaaaa------..-
(PID.TID 0000.0001) //    231 -..------aaaaaaaaaaaaabbbbbbbbbbbbbbccccccccccccccccddddddddddddddddddeeeeeeeeeeeeeeeeeeeeeeeeeeffffffffffffffffffffffffffffffffffffffffffffffffffffffffffffeeeeeeeeeeeeeeeeeeeeeeeeeeddddddddddddddddddccccccccccccccccbbbbbbbbbbbbbbaaaaaaaaaaaaa------..-
(PID.TID 0000.0001) //    230 -..-----aaaaaaaaaaaaabbbbbbbbbbbbbcccccccccccccccddddddddddddddddeeeeeeeeeeeeeeeeeeeeeeffffffffffffffffffffffffffffffffffffffffffffffffffffffffffffffffffffffffffffffeeeeeeeeeeeeeeeeeeeeeeddddddddddddddddcccccccccccccccbbbbbbbbbbbbbaaaaaaaaaaaaa-----..-
(PID.TID 0000.0001) //    229 -..-----aaaaaaaaaaaabbbbbbbbbbbbbcccccccccccccdddddddddddddddeeeeeeeeeeeeeeeeeeefffffffffffffffffffffffffffffffffggggggggggggggggggggggggggfffffffffffffffffffffffffffffffffeeeeeeeeeeeeeeeeeeedddddddddddddddcccccccccccccbbbbbbbbbbbbbaaaaaaaaaaaa-----..-
(PID.TID 0000.0001) //    228 -..-----aaaaaaaaaaabbbbbbbbbbbbcccccccccccccddddddddddddddeeeeeeeeeeeeeeeeffffffffffffffffffffffffggggggggggggggggggggggggggggggggggggggggggggggggggggggggffffffffffffffffffffffffeeeeeeeeeeeeeeeeddddddddddddddcccccccccccccbbbbbbbbbbbbaaaaaaaaaaa-----..-
(PID.TID 0000.0001) //    227 -..-----aaaaaaaaaaabbbbbbbbbbbccccccccccccdddddddddddddeeeeeeeeeeeeeeeffffffffffffffffffffggggggggggggggggggggggggggggggggggggggggggggggggggggggggggggggggggggggggffffffffffffffffffffeeeeeeeeeeeeeeedddddddddddddccccccccccccbbbbbbbbbbbaaaaaaaaaaa-----..-
(PID.TID 0000.0001) //    226 -..----aaaaaaaaaaabbbbbbbbbbbcccccccccccddddddddddddeeeeeeeeeeeeeefffffffffffffffffggggggggggggggggggggggggggggggghhhhhhhhhhhhhhhhhhhhhhhhgggggggggggggggggggggggggggggggfffffffffffffffffeeeeeeeeeeeeeeddddddddddddcccccccccccbbbbbbbbbbbaaaaaaaaaaa----..-
(PID.TID 0000.0001) //    225 -..----aaaaaaaaaabbbbbbbbbbcccccccccccddddddddddddeeeeeeeeeeeeefffffffffffffffgggggggggggggggggggggghhhhhhhhhhhhhhhhhhhhhhhhhhhhhhhhhhhhhhhhhhhhhhhhhhhhggggggggggggggggggggggfffffffffffffffeeeeeeeeeeeeeddddddddddddcccccccccccbbbbbbbbbbaaaaaaaaaa----..-
(PID.TID 0000.0001) //    224 -..----aaaaaaaaaabbbbbbbbbcccccccccccdddddddddddeeeeeeeeeeeeffffffffffffffgggggggggggggggggghhhhhhhhhhhhhhhhhhhhhhhhhhhhhhhhhhhhhhhhhhhhhhhhhhhhhhhhhhhhhhhhhhhhggggggggggggggggggffffffffffffffeeeeeeeeeeeedddddddddddcccccccccccbbbbbbbbbaaaaaaaaaa----..-
(PID.TID 0000.0001) //    223 -..----aaaaaaaaabbbbbbbbbccccccccccdddddddddddeeeeeeeeeeefffffffffffffgggggggggggggggghhhhhhhhhhhhhhhhhhhhhhhhhhhhhhiiiiiiiiiiiiiiiiiiiihhhhhhhhhhhhhhhhhhhhhhhhhhhhhhggggggggggggggggfffffffffffffeeeeeeeeeeedddddddddddccccccccccbbbbbbbbbaaaaaaaaa----..-
(PID.TID 0000.0001) //    222 -..----aaaaaaaabbbbbbbbbbcccccccccddddddddddeeeeeeeeeeeffffffffffffgggggggggggggghhhhhhhhhhhhhhhhhhhhhhiiiiiiiiiiiiiiiiiiiiiiiiiiiiiiiiiiiiiiiiiiiiiihhhhhhhhhhhhhhhhhhhhhhggggggggggggggffffffffffffeeeeeeeeeeeddddddddddcccccccccbbbbbbbbbbaaaaaaaa----..-
(PID.TID 0000.0001) //    221 -..---aaaaaaaaabbbbbbbbbcccccccccdddddddddeeeeeeeeeeefffffffffffggggggggggggghhhhhhhhhhhhhhhhhhiiiiiiiiiiiiiiiiiiiiiiiiiiiiiiiiiiiiiiiiiiiiiiiiiiiiiiiiiiiiiihhhhhhhhhhhhhhhhhhgggggggggggggfffffffffffeeeeeeeeeeedddddddddcccccccccbbbbbbbbbaaaaaaaaa---..-
(PID.TID 0000.0001) //    220 -..---aaaaaaaaabbbbbbbbcccccccccdddddddddeeeeeeeeeeffffffffffggggggggggggghhhhhhhhhhhhhhhiiiiiiiiiiiiiiiiiiiiiiiiiiiiiiijjjjjjjjjjjjiiiiiiiiiiiiiiiiiiiiiiiiiiiiiiihhhhhhhhhhhhhhhgggggggggggggffffffffffeeeeeeeeeedddddddddcccccccccbbbbbbbbaaaaaaaaa---..-
(PID.TID 0000.0001) //    219 -..---aaaaaaaabbbbbbbbcccccccccddddddddeeeeeeeeeeffffffffffggggggggggghhhhhhhhhhhhhhiiiiiiiiiiiiiiiiiiiiijjjjjjjjjjjjjjjjjjjjjjjjjjjjjjjjjjjjjjjjjjiiiiiiiiiiiiiiiiiiiiihhhhhhhhhhhhhhgggggggggggffffffffffeeeeeeeeeeddddddddcccccccccbbbbbbbbaaaaaaaa---..-
(PID.TID 0000.0001) //    218 -..---aaaaaaaabbbbbbbbccccccccddddddddeeeeeeeeeffffffffffggggggggggghhhhhhhhhhhhiiiiiiiiiiiiiiiiijjjjjjjjjjjjjjjjjjjjjjjjjjjjjjjjjjjjjjjjjjjjjjjjjjjjjjjjjjiiiiiiiiiiiiiiiiihhhhhhhhhhhhgggggggggggffffffffffeeeeeeeeeddddddddccccccccbbbbbbbbaaaaaaaa---..-
(PID.TID 0000.0001) //    217 -..---aaaaaaabbbbbbbbccccccccddddddddeeeeeeeeefffffffffgggggggggghhhhhhhhhhhhiiiiiiiiiiiiiiijjjjjjjjjjjjjjjjjjjjjjjjjjjjjjjjjjjjjjjjjjjjjjjjjjjjjjjjjjjjjjjjjjjjiiiiiiiiiiiiiiihhhhhhhhhhhhggggggggggfffffffffeeeeeeeeeddddddddccccccccbbbbbbbbaaaaaaa---..-
(PID.TID 0000.0001) //    216 -..---aaaaaaabbbbbbbccccccccddddddddeeeeeeeefffffffffgggggggggghhhhhhhhhhhiiiiiiiiiiiiijjjjjjjjjjjjjjjjjjjjkkkkkkkkkkkkkkkkkkkkkkkkkkkkkkkkkkkkkkjjjjjjjjjjjjjjjjjjjjiiiiiiiiiiiiihhhhhhhhhhhggggggggggfffffffffeeeeeeeeddddddddccccccccbbbbbbbaaaaaaa---..-
(PID.TID 0000.0001) //    215 -..---aaaaaaabbbbbbbcccccccddddddddeeeeeeeeffffffffgggggggggghhhhhhhhhhiiiiiiiiiiiijjjjjjjjjjjjjjjjjkkkkkkkkkkkkkkkkkkkkkkkkkkkkkkkkkkkkkkkkkkkkkkkkkkkkjjjjjjjjjjjjjjjjjiiiiiiiiiiiihhhhhhhhhhggggggggggffffffffeeeeeeeeddddddddcccccccbbbbbbbaaaaaaa---..-
(PID.TID 0000.0001) //    214 -..---aaaaaabbbbbbbccccccccdddddddeeeeeeeeffffffffggggggggghhhhhhhhhiiiiiiiiiiiijjjjjjjjjjjjjjkkkkkkkkkkkkkkkkkkkkkkkkkkkkkkkkkkkkkkkkkkkkkkkkkkkkkkkkkkkkkkkkjjjjjjjjjjjjjjiiiiiiiiiiiihhhhhhhhhgggggggggffffffffeeeeeeeedddddddccccccccbbbbbbbaaaaaa---..-
(PID.TID 0000.0001) //    213 -..--aaaaaaabbbbbbbcccccccdddddddeeeeeeeefffffffggggggggghhhhhhhhhiiiiiiiiiiijjjjjjjjjjjjjkkkkkkkkkkkkkkkkkkkkllllllllllllllllllllllllllllllllkkkkkkkkkkkkkkkkkkkkjjjjjjjjjjjjjiiiiiiiiiiihhhhhhhhhgggggggggfffffffeeeeeeeedddddddcccccccbbbbbbbaaaaaaa--..-
(PID.TID 0000.0001) //    212 -..--aaaaaaabbbbbbbccccccdddddddeeeeeeeffffffffgggggggghhhhhhhhhiiiiiiiiiijjjjjjjjjjjjkkkkkkkkkkkkkkkkllllllllllllllllllllllllllllllllllllllllllllllllkkkkkkkkkkkkkkkkjjjjjjjjjjjjiiiiiiiiiihhhhhhhhhggggggggffffffffeeeeeeedddddddccccccbbbbbbbaaaaaaa--..-
(PID.TID 0000.0001) //    211 -..--aaaaaaabbbbbbcccccccddddddeeeeeeeffffffffgggggggghhhhhhhhiiiiiiiiijjjjjjjjjjjkkkkkkkkkkkkkkkllllllllllllllllllllllllllllllllllllllllllllllllllllllllllkkkkkkkkkkkkkkkjjjjjjjjjjjiiiiiiiiihhhhhhhhggggggggffffffffeeeeeeeddddddcccccccbbbbbbaaaaaaa--..-
(PID.TID 0000.0001) //    210 -..--aaaaaabbbbbbbccccccdddddddeeeeeeefffffffggggggghhhhhhhhiiiiiiiiijjjjjjjjjjkkkkkkkkkkkkkllllllllllllllllllllllmmmmmmmmmmmmmmmmmmmmmmmmllllllllllllllllllllllkkkkkkkkkkkkkjjjjjjjjjjiiiiiiiiihhhhhhhhgggggggfffffffeeeeeeedddddddccccccbbbbbbbaaaaaa--..-
(PID.TID 0000.0001) //    209 -..--aaaaaabbbbbbcccccccddddddeeeeeeefffffffggggggghhhhhhhhiiiiiiiijjjjjjjjjjkkkkkkkkkkklllllllllllllllllmmmmmmmmmmmmmmmmmmmmmmmmmmmmmmmmmmmmmmmmmmlllllllllllllllllkkkkkkkkkkkjjjjjjjjjjiiiiiiiihhhhhhhhgggggggfffffffeeeeeeeddddddcccccccbbbbbbaaaaaa--..-
(PID.TID 0000.0001) //    208 -..--aaaaaabbbbbbccccccddddddeeeeeeefffffffggggggghhhhhhhiiiiiiiijjjjjjjjjkkkkkkkkkkkllllllllllllllmmmmmmmmmmmmmmmmmmmmmmmmmmmmmmmmmmmmmmmmmmmmmmmmmmmmmmllllllllllllllkkkkkkkkkkkjjjjjjjjjiiiiiiiihhhhhhhgggggggfffffffeeeeeeeddddddccccccbbbbbbaaaaaa--..-
(PID.TID 0000.0001) //    207 -..--aaaaaabbbbbbccccccddddddeeeeeefffffffgggggghhhhhhhhiiiiiiijjjjjjjjjkkkkkkkkkklllllllllllllmmmmmmmmmmmmmmmmmmmmmmmmmnnnnnnnnnnnnmmmmmmmmmmmmmmmmmmmmmmmmmlllllllllllllkkkkkkkkkkjjjjjjjjjiiiiiiihhhhhhhhggggggfffffffeeeeeeddddddccccccbbbbbbaaaaaa--..-
(PID.TID 0000.0001) //    206 -..--aaaaaabbbbbccccccddddddeeeeeefffffffgggggghhhhhhhiiiiiiiijjjjjjjjkkkkkkkkkllllllllllllmmmmmmmmmmmmmmmmmnnnnnnnnnnnnnnnnnnnnnnnnnnnnnnnnnnnnmmmmmmmmmmmmmmmmmllllllllllllkkkkkkkkkjjjjjjjjiiiiiiiihhhhhhhggggggfffffffeeeeeeddddddccccccbbbbbaaaaaa--..-
(PID.TID 0000.0001) //    205 -..--aaaaabbbbbbccccccddddddeeeeeeffffffgggggghhhhhhhiiiiiiijjjjjjjjkkkkkkkkklllllllllllmmmmmmmmmmmmmmnnnnnnnnnnnnnnnnnnnnnnnnnnnnnnnnnnnnnnnnnnnnnnnnmmmmmmmmmmmmmmlllllllllllkkkkkkkkkjjjjjjjjiiiiiiihhhhhhhggggggffffffeeeeeeddddddccccccbbbbbbaaaaa--..-
(PID.TID 0000.0001) //    204 -..--aaaaabbbbbbcccccddddddeeeeeeffffffgggggghhhhhhhiiiiiiijjjjjjjkkkkkkkkkllllllllllmmmmmmmmmmmmmnnnnnnnnnnnnnnnnnnnnnnnnnnnnnnnnnnnnnnnnnnnnnnnnnnnnnnnnmmmmmmmmmmmmmllllllllllkkkkkkkkkjjjjjjjiiiiiiihhhhhhhggggggffffffeeeeeeddddddcccccbbbbbbaaaaa--..-
(PID.TID 0000.0001) //    203 -..--aaaaabbbbbbcccccddddddeeeeeffffffgggggghhhhhhhiiiiiijjjjjjjjkkkkkkkklllllllllmmmmmmmmmmmmnnnnnnnnnnnnnnnnnnnoooooooooooooooooooooooooonnnnnnnnnnnnnnnnnnnmmmmmmmmmmmmlllllllllkkkkkkkkjjjjjjjjiiiiiihhhhhhhggggggffffffeeeeeddddddcccccbbbbbbaaaaa--..-
(PID.TID 0000.0001) //    202 -..--aaaaabbbbbccccccdddddeeeeeefffffgggggghhhhhhhiiiiiijjjjjjjkkkkkkkklllllllllmmmmmmmmmmnnnnnnnnnnnnnnnnoooooooooooooooooooooooooooooooooooooooonnnnnnnnnnnnnnnnmmmmmmmmmmlllllllllkkkkkkkkjjjjjjjiiiiiihhhhhhhggggggfffffeeeeeedddddccccccbbbbbaaaaa--..-
(PID.TID 0000.0001) //    201 -..--aaaaabbbbbcccccddddddeeeeeffffffgggggghhhhhhiiiiiijjjjjjjkkkkkkklllllllllmmmmmmmmmmnnnnnnnnnnnnnoooooooooooooooooooooooooooooooooooooooooooooooooonnnnnnnnnnnnnmmmmmmmmmmlllllllllkkkkkkkjjjjjjjiiiiiihhhhhhggggggffffffeeeeeddddddcccccbbbbbaaaaa--..-
(PID.TID 0000.0001) //    200 -..--aaaaabbbbbcccccdddddeeeeeefffffgggggghhhhhhiiiiiijjjjjjkkkkkkkkllllllllmmmmmmmmmnnnnnnnnnnnnooooooooooooooooooooooppppppppppppppoooooooooooooooooooooonnnnnnnnnnnnmmmmmmmmmllllllllkkkkkkkkjjjjjjiiiiiihhhhhhggggggfffffeeeeeedddddcccccbbbbbaaaaa--..-
(PID.TID 0000.0001) //    199 -..--aaaaabbbbbcccccdddddeeeeefffffgggggghhhhhhiiiiiijjjjjjkkkkkkkllllllllmmmmmmmmmnnnnnnnnnnoooooooooooooooooppppppppppppppppppppppppppppppppooooooooooooooooonnnnnnnnnnmmmmmmmmmllllllllkkkkkkkjjjjjjiiiiiihhhhhhggggggfffffeeeeedddddcccccbbbbbaaaaa--..-
(PID.TID 0000.0001) //    198 -..-aaaaabbbbbcccccdddddeeeeeefffffggggghhhhhhiiiiiijjjjjjkkkkkkklllllllmmmmmmmmnnnnnnnnnnooooooooooooooppppppppppppppppppppppppppppppppppppppppppppoooooooooooooonnnnnnnnnnmmmmmmmmlllllllkkkkkkkjjjjjjiiiiiihhhhhhgggggfffffeeeeeedddddcccccbbbbbaaaaa-..-
(PID.TID 0000.0001) //    197 -..-aaaaabbbbbcccccdddddeeeeefffffgggggghhhhhiiiiiijjjjjjkkkkkkllllllllmmmmmmmnnnnnnnnnnooooooooooooppppppppppppppppppppppppppppppppppppppppppppppppppppoooooooooooonnnnnnnnnnmmmmmmmllllllllkkkkkkjjjjjjiiiiiihhhhhggggggfffffeeeeedddddcccccbbbbbaaaaa-..-
(PID.TID 0000.0001) //    196 -..-aaaaabbbbbcccccdddddeeeeefffffggggghhhhhiiiiiijjjjjjkkkkkklllllllmmmmmmmmnnnnnnnnooooooooooopppppppppppppppppppqqqqqqqqqqqqqqqqqqqqqqpppppppppppppppppppooooooooooonnnnnnnnmmmmmmmmlllllllkkkkkkjjjjjjiiiiiihhhhhgggggfffffeeeeedddddcccccbbbbbaaaaa-..-
(PID.TID 0000.0001) //    195 -..-aaaaabbbbbccccdddddeeeeefffffggggghhhhhhiiiiijjjjjjkkkkkklllllllmmmmmmmnnnnnnnnoooooooooopppppppppppppppqqqqqqqqqqqqqqqqqqqqqqqqqqqqqqqqqqqqpppppppppppppppoooooooooonnnnnnnnmmmmmmmlllllllkkkkkkjjjjjjiiiiihhhhhhgggggfffffeeeeedddddccccbbbbbaaaaa-..-
(PID.TID 0000.0001) //    194 -..-aaaaabbbbbccccdddddeeeeefffffggggghhhhhiiiiijjjjjjkkkkkkllllllmmmmmmmnnnnnnnnoooooooooopppppppppppppqqqqqqqqqqqqqqqqqqqqqqqqqqqqqqqqqqqqqqqqqqqqpppppppppppppoooooooooonnnnnnnnmmmmmmmllllllkkkkkkjjjjjjiiiiihhhhhgggggfffffeeeeedddddccccbbbbbaaaaa-..-
(PID.TID 0000.0001) //    193 -..-aaaaabbbbcccccdddddeeeefffffggggghhhhhiiiiijjjjjjkkkkkkllllllmmmmmmmnnnnnnnoooooooooppppppppppppqqqqqqqqqqqqqqqqqqqqqqqqqqqqqqqqqqqqqqqqqqqqqqqqqqqqppppppppppppooooooooonnnnnnnmmmmmmmllllllkkkkkkjjjjjjiiiiihhhhhgggggfffffeeeedddddcccccbbbbaaaaa-..-
(PID.TID 0000.0001) //    192 -..-aaaaabbbbcccccddddeeeeefffffggggghhhhhiiiiijjjjjkkkkkkllllllmmmmmmnnnnnnnnoooooooopppppppppppqqqqqqqqqqqqqqqqqrrrrrrrrrrrrrrrrrrrrrrrrqqqqqqqqqqqqqqqqqpppppppppppoooooooonnnnnnnnmmmmmmllllllkkkkkkjjjjjiiiiihhhhhgggggfffffeeeeeddddcccccbbbbaaaaa-..-
(PID.TID 0000.0001) //    191 -..-aaaaabbbbcccccddddeeeeeffffggggghhhhhiiiiijjjjjkkkkkkllllllmmmmmmnnnnnnnooooooooppppppppppqqqqqqqqqqqqqqrrrrrrrrrrrrrrrrrrrrrrrrrrrrrrrrrrrrqqqqqqqqqqqqqqppppppppppoooooooonnnnnnnmmmmmmllllllkkkkkkjjjjjiiiiihhhhhgggggffffeeeeeddddcccccbbbbaaaaa-..-
(PID.TID 0000.0001) //    190 -..-aaaaabbbbccccdddddeeeefffffggggghhhhiiiiijjjjjkkkkkkllllllmmmmmmnnnnnnnooooooopppppppppqqqqqqqqqqqqqrrrrrrrrrrrrrrrrrrrrrrrrrrrrrrrrrrrrrrrrrrrrqqqqqqqqqqqqqpppppppppooooooonnnnnnnmmmmmmllllllkkkkkkjjjjjiiiiihhhhgggggfffffeeeedddddccccbbbbaaaaa-..-
(PID.TID 0000.0001) //    189 -..-aaaabbbbbccccddddeeeeeffffggggghhhhhiiiiijjjjjkkkkkllllllmmmmmmnnnnnnooooooooppppppppqqqqqqqqqqqrrrrrrrrrrrrrrrrrrrrrrrrrrrrrrrrrrrrrrrrrrrrrrrrrrrrqqqqqqqqqqqppppppppoooooooonnnnnnmmmmmmllllllkkkkkjjjjjiiiiihhhhhgggggffffeeeeeddddccccbbbbbaaaa-..-
(PID.TID 0000.0001) //    188 -..-aaaabbbbbccccddddeeeeeffffggggghhhhiiiiijjjjjkkkkkllllllmmmmmmnnnnnnoooooooppppppppqqqqqqqqqqrrrrrrrrrrrrrrrrrssssssssssssssssssssssssrrrrrrrrrrrrrrrrrqqqqqqqqqqppppppppooooooonnnnnnmmmmmmllllllkkkkkjjjjjiiiiihhhhgggggffffeeeeeddddccccbbbbbaaaa-..-
(PID.TID 0000.0001) //    187 -..-aaaabbbbcccccddddeeeefffffgggghhhhhiiiijjjjjkkkkkllllllmmmmmmnnnnnnooooooopppppppqqqqqqqqqqrrrrrrrrrrrrrssssssssssssssssssssssssssssssssssssrrrrrrrrrrrrrqqqqqqqqqqpppppppooooooonnnnnnmmmmmmllllllkkkkkjjjjjiiiihhhhhggggfffffeeeeddddcccccbbbbaaaa-..-
(PID.TID 0000.0001) //    186 -..-aaaabbbbccccdddddeeeeffffggggghhhhiiiiijjjjjkkkkklllllmmmmmmnnnnnnooooooppppppppqqqqqqqqrrrrrrrrrrrrssssssssssssssssssssssssssssssssssssssssssssrrrrrrrrrrrrqqqqqqqqppppppppoooooonnnnnnmmmmmmlllllkkkkkjjjjjiiiiihhhhgggggffffeeeedddddccccbbbbaaaa-..-
(PID.TID 0000.0001) //    185 -..-aaaabbbbccccddddeeeeeffffgggghhhhhiiiijjjjjkkkkklllllmmmmmmnnnnnooooooopppppppqqqqqqqqrrrrrrrrrrrssssssssssssssssssssssssssssssssssssssssssssssssssrrrrrrrrrrrqqqqqqqqpppppppooooooonnnnnmmmmmmlllllkkkkkjjjjjiiiihhhhhggggffffeeeeeddddccccbbbbaaaa-..-
(PID.TID 0000.0001) //    184 -..-aaaabbbbccccddddeeeefffffgggghhhhiiiiijjjjkkkkklllllmmmmmmnnnnnoooooooppppppqqqqqqqqrrrrrrrrrrsssssssssssssssssttttttttttttttttttttttsssssssssssssssssrrrrrrrrrrqqqqqqqqppppppooooooonnnnnmmmmmmlllllkkkkkjjjjiiiiihhhhggggfffffeeeeddddccccbbbbaaaa-..-
(PID.TID 0000.0001) //    183 -..-aaaabbbbccccddddeeeeffffggggghhhhiiiijjjjjkkkkklllllmmmmmnnnnnoooooopppppppqqqqqqqqrrrrrrrrrssssssssssssssttttttttttttttttttttttttttttttttssssssssssssssrrrrrrrrrqqqqqqqqpppppppoooooonnnnnmmmmmlllllkkkkkjjjjjiiiihhhhgggggffffeeeeddddccccbbbbaaaa-..-
(PID.TID 0000.0001) //    182 -..-aaaabbbbccccddddeeeeffffgggghhhhiiiiijjjjkkkkklllllmmmmmnnnnnoooooopppppppqqqqqqqrrrrrrrrrssssssssssssttttttttttttttttttttttttttttttttttttttttssssssssssssrrrrrrrrrqqqqqqqpppppppoooooonnnnnmmmmmlllllkkkkkjjjjiiiiihhhhggggffffeeeeddddccccbbbbaaaa-..-
(PID.TID 0000.0001) //    181 -..-aaaabbbbccccddddeeeeffffgggghhhhiiiijjjjjkkkklllllmmmmmnnnnnnooooopppppppqqqqqqqrrrrrrrrsssssssssssttttttttttttttttttttttttttttttttttttttttttttttsssssssssssrrrrrrrrqqqqqqqpppppppooooonnnnnnmmmmmlllllkkkkjjjjjiiiihhhhggggffffeeeeddddccccbbbbaaaa-..-
(PID.TID 0000.0001) //    180 -..-aaaabbbbccccdddeeeeffffgggghhhhhiiiijjjjkkkkklllllmmmmnnnnnnoooooppppppqqqqqqqrrrrrrrrssssssssssttttttttttttttttttuuuuuuuuuuuuuuuuttttttttttttttttttssssssssssrrrrrrrrqqqqqqqppppppooooonnnnnnmmmmlllllkkkkkjjjjiiiihhhhhggggffffeeeedddccccbbbbaaaa-..-
(PID.TID 0000.0001) //    179 -..-aaaabbbbcccddddeeeeffffgggghhhhiiiijjjjjkkkklllllmmmmmnnnnnoooooppppppqqqqqqqrrrrrrrssssssssssttttttttttttttuuuuuuuuuuuuuuuuuuuuuuuuuuuuttttttttttttttssssssssssrrrrrrrqqqqqqqppppppooooonnnnnmmmmmlllllkkkkjjjjjiiiihhhhggggffffeeeeddddcccbbbbaaaa-..-
(PID.TID 0000.0001) //    178 -..-aaaabbbccccddddeeeeffffgggghhhhiiiijjjjkkkkkllllmmmmmnnnnnoooooppppppqqqqqqqrrrrrrrsssssssssttttttttttttuuuuuuuuuuuuuuuuuuuuuuuuuuuuuuuuuuuuttttttttttttsssssssssrrrrrrrqqqqqqqppppppooooonnnnnmmmmmllllkkkkkjjjjiiiihhhhggggffffeeeeddddccccbbbaaaa-..-
(PID.TID 0000.0001) //    177 -..-aaaabbbccccddddeeeeffffgggghhhhiiiijjjjkkkklllllmmmmnnnnnoooooopppppqqqqqqrrrrrrrssssssssstttttttttttuuuuuuuuuuuuuuuuuuuuuuuuuuuuuuuuuuuuuuuuuutttttttttttsssssssssrrrrrrrqqqqqqpppppoooooonnnnnmmmmlllllkkkkjjjjiiiihhhhggggffffeeeeddddccccbbbaaaa-..-
(PID.TID 0000.0001) //    176 -..-aaaabbbccccddddeeeffffgggghhhhiiiijjjjkkkkkllllmmmmmnnnnnooooopppppqqqqqqrrrrrrrssssssssttttttttttuuuuuuuuuuuuuuuuuuuuuuuuuuuuuuuuuuuuuuuuuuuuuuuuttttttttttssssssssrrrrrrrqqqqqqpppppooooonnnnnmmmmmllllkkkkkjjjjiiiihhhhggggffffeeeddddccccbbbaaaa-..-
(PID.TID 0000.0001) //    175 -..-aaaabbbccccddddeeeffffgggghhhhiiiijjjjkkkklllllmmmmnnnnnooooopppppqqqqqqrrrrrrrsssssssttttttttttuuuuuuuuuuuuuuuuvvvvvvvvvvvvvvvvvvvvuuuuuuuuuuuuuuuuttttttttttsssssssrrrrrrrqqqqqqpppppooooonnnnnmmmmlllllkkkkjjjjiiiihhhhggggffffeeeddddccccbbbaaaa-..-
(PID.TID 0000.0001) //    174 -..-aaabbbbccccdddeeeeffffgggghhhhiiiijjjjkkkkllllmmmmmnnnnoooooppppppqqqqqrrrrrrrssssssstttttttttuuuuuuuuuuuuuuvvvvvvvvvvvvvvvvvvvvvvvvvvvvuuuuuuuuuuuuuutttttttttsssssssrrrrrrrqqqqqppppppooooonnnnmmmmmllllkkkkjjjjiiiihhhhggggffffeeeedddccccbbbbaaa-..-
(PID.TID 0000.0001) //    173 -..-aaabbbbccccdddeeeeffffggghhhhiiiijjjjkkkklllllmmmmnnnnnooooopppppqqqqqrrrrrrrsssssssttttttttuuuuuuuuuuuuvvvvvvvvvvvvvvvvvvvvvvvvvvvvvvvvvvvvuuuuuuuuuuuuttttttttsssssssrrrrrrrqqqqqpppppooooonnnnnmmmmlllllkkkkjjjjiiiihhhhgggffffeeeedddccccbbbbaaa-..-
(PID.TID 0000.0001) //    172 -..-aaabbbbcccddddeeeefffgggghhhhiiiijjjjkkkkllllmmmmnnnnnooooopppppqqqqqrrrrrrsssssssttttttttuuuuuuuuuuuvvvvvvvvvvvvvvvvvvvvvvvvvvvvvvvvvvvvvvvvvvuuuuuuuuuuuttttttttsssssssrrrrrrqqqqqpppppooooonnnnnmmmmllllkkkkjjjjiiiihhhhggggfffeeeeddddcccbbbbaaa-..-
(PID.TID 0000.0001) //    171 -..-aaabbbbcccddddeeeefffgggghhhhiiiijjjkkkklllllmmmmnnnnooooopppppqqqqqqrrrrrsssssssttttttttuuuuuuuuuuvvvvvvvvvvvvvvvvvvvvvvvvvvvvvvvvvvvvvvvvvvvvvvuuuuuuuuuuttttttttsssssssrrrrrqqqqqqpppppooooonnnnmmmmlllllkkkkjjjiiiihhhhggggfffeeeeddddcccbbbbaaa-..-
(PID.TID 0000.0001) //    170 -..-aaabbbbcccddddeeeffffgggghhhiiiijjjjkkkkllllmmmmnnnnnoooooppppqqqqqqrrrrrrsssssstttttttuuuuuuuuuuvvvvvvvvvvvvvvvvwwwwwwwwwwwwwwwwwwvvvvvvvvvvvvvvvvuuuuuuuuuutttttttssssssrrrrrrqqqqqqppppooooonnnnnmmmmllllkkkkjjjjiiiihhhggggffffeeeddddcccbbbbaaa-..-
(PID.TID 0000.0001) //    169 -..-aaabbbbcccddddeeeffffggghhhhiiiijjjjkkkkllllmmmmnnnnooooopppppqqqqqrrrrrrsssssstttttttuuuuuuuuuvvvvvvvvvvvvvvwwwwwwwwwwwwwwwwwwwwwwwwwwvvvvvvvvvvvvvvuuuuuuuuutttttttssssssrrrrrrqqqqqpppppooooonnnnmmmmllllkkkkjjjjiiiihhhhgggffffeeeddddcccbbbbaaa-..-
(PID.TID 0000.0001) //    168 -..-aaabbbbcccddddeeeffffggghhhhiiiijjjkkkkllllmmmmmnnnnoooopppppqqqqqrrrrrrsssssstttttttuuuuuuuuvvvvvvvvvvvvwwwwwwwwwwwwwwwwwwwwwwwwwwwwwwwwwwvvvvvvvvvvvvuuuuuuuutttttttssssssrrrrrrqqqqqpppppoooonnnnmmmmmllllkkkkjjjiiiihhhhgggffffeeeddddcccbbbbaaa-..-
(PID.TID 0000.0001) //    167 -..-aaabbbbcccdddeeeefffgggghhhhiiijjjjkkkkllllmmmmnnnnooooopppppqqqqqrrrrrsssssstttttttuuuuuuuuvvvvvvvvvvvwwwwwwwwwwwwwwwwwwwwwwwwwwwwwwwwwwwwwwvvvvvvvvvvvuuuuuuuutttttttssssssrrrrrqqqqqpppppooooonnnnmmmmllllkkkkjjjjiiihhhhggggfffeeeedddcccbbbbaaa-..-
(PID.TID 0000.0001) //    166 -..-aaabbbccccdddeeeefffgggghhhiiiijjjjkkkkllllmmmmnnnnoooopppppqqqqqrrrrrsssssstttttttuuuuuuuvvvvvvvvvvvwwwwwwwwwwwwwwwwwwwwwwwwwwwwwwwwwwwwwwwwwwvvvvvvvvvvvuuuuuuutttttttssssssrrrrrqqqqqpppppoooonnnnmmmmllllkkkkjjjjiiiihhhggggfffeeeedddccccbbbaaa-..-
(PID.TID 0000.0001) //    165 -..-aaabbbccccdddeeeefffgggghhhiiiijjjjkkkllllmmmmnnnnoooooppppqqqqqrrrrrsssssstttttttuuuuuuuvvvvvvvvvvwwwwwwwwwwwwwwwwwwwxxxxxxxxwwwwwwwwwwwwwwwwwwwvvvvvvvvvvuuuuuuutttttttssssssrrrrrqqqqqppppooooonnnnmmmmllllkkkjjjjiiiihhhggggfffeeeedddccccbbbaaa-..-
(PID.TID 0000.0001) //    164 -..-aaabbbccccdddeeeefffggghhhhiiiijjjkkkkllllmmmmnnnnoooopppppqqqqqrrrrrssssstttttttuuuuuuuvvvvvvvvvwwwwwwwwwwwwwwwxxxxxxxxxxxxxxxxxxxxwwwwwwwwwwwwwwwvvvvvvvvvuuuuuuutttttttsssssrrrrrqqqqqpppppoooonnnnmmmmllllkkkkjjjiiiihhhhgggfffeeeedddccccbbbaaa-..-
(PID.TID 0000.0001) //    163 -..-aaabbbccccdddeeeffffggghhhhiiijjjjkkkkllllmmmmnnnnooooppppqqqqqrrrrrssssssttttttuuuuuuuvvvvvvvvwwwwwwwwwwwwwxxxxxxxxxxxxxxxxxxxxxxxxxxxxwwwwwwwwwwwwwvvvvvvvvuuuuuuuttttttssssssrrrrrqqqqqppppoooonnnnmmmmllllkkkkjjjjiiihhhhgggffffeeedddccccbbbaaa-..-
(PID.TID 0000.0001) //    162 -..-aaabbbccccdddeeeffffggghhhhiiijjjjkkkllllmmmmnnnnoooopppppqqqqrrrrrssssssttttttuuuuuuuvvvvvvvvwwwwwwwwwwwwxxxxxxxxxxxxxxxxxxxxxxxxxxxxxxxxwwwwwwwwwwwwvvvvvvvvuuuuuuuttttttssssssrrrrrqqqqpppppoooonnnnmmmmllllkkkjjjjiiihhhhgggffffeeedddccccbbbaaa-..-
(PID.TID 0000.0001) //    161 -..-aaabbbccccdddeeeffffggghhhiiiijjjjkkkllllmmmmnnnnooooppppqqqqqrrrrrsssssttttttuuuuuuuvvvvvvvvwwwwwwwwwwxxxxxxxxxxxxxxxxxxxxxxxxxxxxxxxxxxxxxxwwwwwwwwwwvvvvvvvvuuuuuuuttttttsssssrrrrrqqqqqppppoooonnnnmmmmllllkkkjjjjiiiihhhgggffffeeedddccccbbbaaa-..-
(PID.TID 0000.0001) //    160 -..-aaabbbcccddddeeefffgggghhhiiiijjjkkkkllllmmmnnnnoooooppppqqqqrrrrrsssssttttttuuuuuuuvvvvvvvwwwwwwwwwwwxxxxxxxxxxxxxxxxxxxxxxxxxxxxxxxxxxxxxxxxwwwwwwwwwwwvvvvvvvuuuuuuuttttttsssssrrrrrqqqqppppooooonnnnmmmllllkkkkjjjiiiihhhggggfffeeeddddcccbbbaaa-..-
(PID.TID 0000.0001) //    159 -..-aaabbbcccddddeeefffgggghhhiiiijjjkkkklllmmmmnnnnooooppppqqqqqrrrrrssssstttttuuuuuuuvvvvvvvwwwwwwwwwwxxxxxxxxxxxxxxxxxxxxxxxxxxxxxxxxxxxxxxxxxxxxwwwwwwwwwwvvvvvvvuuuuuuutttttsssssrrrrrqqqqqppppoooonnnnmmmmlllkkkkjjjiiiihhhggggfffeeeddddcccbbbaaa-..-
(PID.TID 0000.0001) //    158 -..-aaabbbcccddddeeefffggghhhhiiijjjjkkkllllmmmmnnnnooooppppqqqqrrrrrsssssttttttuuuuuuvvvvvvvwwwwwwwwwxxxxxxxxxxxxxxxxxyyyyyyyyyyyyyyxxxxxxxxxxxxxxxxxwwwwwwwwwvvvvvvvuuuuuuttttttsssssrrrrrqqqqppppoooonnnnmmmmllllkkkjjjjiiihhhhgggfffeeeddddcccbbbaaa-..-
(PID.TID 0000.0001) //    157 -..-aaabbbcccdddeeeefffggghhhhiiijjjjkkkllllmmmmnnnoooopppppqqqqrrrrrssssstttttuuuuuuvvvvvvvwwwwwwwwwxxxxxxxxxxxxxxyyyyyyyyyyyyyyyyyyyyyyxxxxxxxxxxxxxxwwwwwwwwwvvvvvvvuuuuuutttttsssssrrrrrqqqqpppppoooonnnmmmmllllkkkjjjjiiihhhhgggfffeeeedddcccbbbaaa-..-
(PID.TID 0000.0001) //    156 -..-aaabbbcccdddeeeefffggghhhhiiijjjkkkkllllmmmnnnnooooppppqqqqqrrrrssssstttttuuuuuuvvvvvvvwwwwwwwwwxxxxxxxxxxxxyyyyyyyyyyyyyyyyyyyyyyyyyyyyxxxxxxxxxxxxwwwwwwwwwvvvvvvvuuuuuutttttsssssrrrrqqqqqppppoooonnnnmmmllllkkkkjjjiiihhhhgggfffeeeedddcccbbbaaa-..-
(PID.TID 0000.0001) //    155 -..-aaabbbcccdddeeeefffggghhhiiiijjjkkkklllmmmmnnnnooooppppqqqqrrrrrssssstttttuuuuuuvvvvvvwwwwwwwwxxxxxxxxxxxxyyyyyyyyyyyyyyyyyyyyyyyyyyyyyyyyxxxxxxxxxxxxwwwwwwwwvvvvvvuuuuuutttttsssssrrrrrqqqqppppoooonnnnmmmmlllkkkkjjjiiiihhhgggfffeeeedddcccbbbaaa-..-
(PID.TID 0000.0001) //    154 -..-aaabbbcccdddeeeffffggghhhiiiijjjkkkklllmmmmnnnnooopppppqqqqrrrrssssstttttuuuuuuvvvvvvvwwwwwwwxxxxxxxxxxxyyyyyyyyyyyyyyyyyyyyyyyyyyyyyyyyyyyyxxxxxxxxxxxwwwwwwwvvvvvvvuuuuuutttttsssssrrrrqqqqpppppooonnnnmmmmlllkkkkjjjiiiihhhgggffffeeedddcccbbbaaa-..-
(PID.TID 0000.0001) //    153 -..-aaabbbcccdddeeeffffggghhhiiijjjjkkkllllmmmmnnnooooppppqqqqrrrrrssssstttttuuuuuvvvvvvvwwwwwwwxxxxxxxxxxxyyyyyyyyyyyyyyyyyyyyyyyyyyyyyyyyyyyyyyxxxxxxxxxxxwwwwwwwvvvvvvvuuuuutttttsssssrrrrrqqqqppppoooonnnmmmmllllkkkjjjjiiihhhgggffffeeedddcccbbbaaa-..-
(PID.TID 0000.0001) //    152 -..-aaabbbcccdddeeefffgggghhhiiijjjjkkkllllmmmnnnnooooppppqqqqrrrrssssstttttuuuuuuvvvvvvwwwwwwwxxxxxxxxxxyyyyyyyyyyyyyyyyyyyyyyyyyyyyyyyyyyyyyyyyyyxxxxxxxxxxwwwwwwwvvvvvvuuuuuutttttsssssrrrrqqqqppppoooonnnnmmmllllkkkjjjjiiihhhggggfffeeedddcccbbbaaa-..-
(PID.TID 0000.0001) //    151 -..-aaabbbcccdddeeefffgggghhhiiijjjjkkklllmmmmnnnnooooppppqqqqrrrrssssstttttuuuuuvvvvvvwwwwwwwwxxxxxxxxxyyyyyyyyyyyyyyyyyyyyyyyyyyyyyyyyyyyyyyyyyyyyxxxxxxxxxwwwwwwwwvvvvvvuuuuutttttsssssrrrrqqqqppppoooonnnnmmmmlllkkkjjjjiiihhhggggfffeeedddcccbbbaaa-..-
(PID.TID 0000.0001) //    150 -..-aaabbbcccdddeeefffggghhhhiiijjjkkkklllmmmmnnnnoooppppqqqqrrrrrsssstttttuuuuuuvvvvvvwwwwwwwxxxxxxxxxyyyyyyyyyyyyyyyyzzzzzzzzzzzzzzyyyyyyyyyyyyyyyyxxxxxxxxxwwwwwwwvvvvvvuuuuuutttttssssrrrrrqqqqppppooonnnnmmmmlllkkkkjjjiiihhhhgggfffeeedddcccbbbaaa-..-
(PID.TID 0000.0001) //    149 -..-aaabbbcccdddeeefffggghhhhiiijjjkkkklllmmmmnnnooooppppqqqqrrrrssssstttttuuuuuvvvvvvwwwwwwwxxxxxxxxxyyyyyyyyyyyyyyzzzzzzzzzzzzzzzzzzzzyyyyyyyyyyyyyyxxxxxxxxxwwwwwwwvvvvvvuuuuutttttsssssrrrrqqqqppppoooonnnmmmmlllkkkkjjjiiihhhhgggfffeeedddcccbbbaaa-..-
(PID.TID 0000.0001) //    148 -..-aaabbbcccdddeeefffggghhhhiiijjjkkkllllmmmnnnnooooppppqqqqrrrrsssssttttuuuuuuvvvvvvwwwwwwxxxxxxxxxyyyyyyyyyyyyyzzzzzzzzzzzzzzzzzzzzzzzzyyyyyyyyyyyyyxxxxxxxxxwwwwwwvvvvvvuuuuuuttttsssssrrrrqqqqppppoooonnnnmmmllllkkkjjjiiihhhhgggfffeeedddcccbbbaaa-..-
(PID.TID 0000.0001) //    147 -..-aaabbbcccdddeeefffggghhhiiiijjjkkkllllmmmnnnnooooppppqqqqrrrrsssstttttuuuuuvvvvvvwwwwwwwxxxxxxxxyyyyyyyyyyyyzzzzzzzzzzzzzzzzzzzzzzzzzzzzyyyyyyyyyyyyxxxxxxxxwwwwwwwvvvvvvuuuuutttttssssrrrrqqqqppppoooonnnnmmmllllkkkjjjiiiihhhgggfffeeedddcccbbbaaa-..-
(PID.TID 0000.0001) //    146 -..-aaabbbcccdddeeefffggghhhiiiijjjkkkllllmmmnnnnoooppppqqqqrrrrssssstttttuuuuuvvvvvvwwwwwwxxxxxxxxyyyyyyyyyyyzzzzzzzzzzzzzzzzzzzzzzzzzzzzzzzzyyyyyyyyyyyxxxxxxxxwwwwwwvvvvvvuuuuutttttsssssrrrrqqqqppppooonnnnmmmllllkkkjjjiiiihhhgggfffeeedddcccbbbaaa-..-
(PID.TID 0000.0001) //    145 -..-aaabbbcccdddeeefffggghhhiiijjjjkkklllmmmmnnnnoooppppqqqqrrrrsssssttttuuuuuvvvvvvwwwwwwwxxxxxxxyyyyyyyyyyyzzzzzzzzzzzzzzzzzzzzzzzzzzzzzzzzzzyyyyyyyyyyyxxxxxxxwwwwwwwvvvvvvuuuuuttttsssssrrrrqqqqppppooonnnnmmmmlllkkkjjjjiiihhhgggfffeeedddcccbbbaaa-..-
(PID.TID 0000.0001) //    144 -..-aaabbbcccdddeeefffggghhhiiijjjjkkklllmmmmnnnooooppppqqqqrrrrsssstttttuuuuuvvvvvvwwwwwwxxxxxxxxyyyyyyyyyyzzzzzzzzzzzzzzzzzzzzzzzzzzzzzzzzzzzzyyyyyyyyyyxxxxxxxxwwwwwwvvvvvvuuuuutttttssssrrrrqqqqppppoooonnnmmmmlllkkkjjjjiiihhhgggfffeeedddcccbbbaaa-..-
(PID.TID 0000.0001) //    143 -..-aaabbbcccdddeeefffggghhhiiijjjkkkklllmmmmnnnooooppppqqqqrrrrsssstttttuuuuuvvvvvwwwwwwxxxxxxxxyyyyyyyyyyzzzzzzzzzzzzzzzzzzzzzzzzzzzzzzzzzzzzzzyyyyyyyyyyxxxxxxxxwwwwwwvvvvvuuuuutttttssssrrrrqqqqppppoooonnnmmmmlllkkkkjjjiiihhhgggfffeeedddcccbbbaaa-..-
(PID.TID 0000.0001) //    142 -..-aaabbbcccdddeeefffggghhhiiijjjkkkklllmmmnnnnoooopppqqqqrrrrsssssttttuuuuuvvvvvvwwwwwwxxxxxxxyyyyyyyyyyzzzzzzzzzzzzzzzzzzzzzzzzzzzzzzzzzzzzzzzzyyyyyyyyyyxxxxxxxwwwwwwvvvvvvuuuuuttttsssssrrrrqqqqpppoooonnnnmmmlllkkkkjjjiiihhhgggfffeeedddcccbbbaaa-..-
(PID.TID 0000.0001) //    141 -..-aaabbbcccdddeeefffggghhhiiijjjkkkklllmmmnnnnoooopppqqqqrrrrsssssttttuuuuuvvvvvwwwwwwwxxxxxxxyyyyyyyyyzzzzzzzzzzzzzzzzzzzzzzzzzzzzzzzzzzzzzzzzzzyyyyyyyyyxxxxxxxwwwwwwwvvvvvuuuuuttttsssssrrrrqqqqpppoooonnnnmmmlllkkkkjjjiiihhhgggfffeeedddcccbbbaaa-..-
(PID.TID 0000.0001) //    140 -..-aaabbcccddddeeefffggghhhiiijjjkkkllllmmmnnnnoooppppqqqqrrrrsssstttttuuuuuvvvvvwwwwwwxxxxxxxyyyyyyyyyzzzzzzzzzzzzzzzzzzzzzzzzzzzzzzzzzzzzzzzzzzzzyyyyyyyyyxxxxxxxwwwwwwvvvvvuuuuutttttssssrrrrqqqqppppooonnnnmmmllllkkkjjjiiihhhgggfffeeeddddcccbbaaa-..-
(PID.TID 0000.0001) //    139 -..-aabbbcccdddeeeffffggghhhiiijjjkkkllllmmmnnnnoooppppqqqqrrrrsssstttttuuuuuvvvvvwwwwwwxxxxxxxyyyyyyyyyzzzzzzzzzzzzzzzzz++++++++++zzzzzzzzzzzzzzzzzyyyyyyyyyxxxxxxxwwwwwwvvvvvuuuuutttttssssrrrrqqqqppppooonnnnmmmllllkkkjjjiiihhhgggffffeeedddcccbbbaa-..-
(PID.TID 0000.0001) //    138 -..-aabbbcccdddeeeffffggghhhiiijjjkkkllllmmmnnnnoooppppqqqqrrrrssssttttuuuuuvvvvvvwwwwwxxxxxxxyyyyyyyyyzzzzzzzzzzzzzzzz++++++++++++++zzzzzzzzzzzzzzzzyyyyyyyyyxxxxxxxwwwwwvvvvvvuuuuuttttssssrrrrqqqqppppooonnnnmmmllllkkkjjjiiihhhgggffffeeedddcccbbbaa-..-
(PID.TID 0000.0001) //    137 -..-aabbbcccdddeeefffgggghhhiiijjjkkkllllmmmnnnooooppppqqqqrrrrssssttttuuuuuvvvvvwwwwwwxxxxxxxyyyyyyyyyzzzzzzzzzzzzzz++++++++++++++++++zzzzzzzzzzzzzzyyyyyyyyyxxxxxxxwwwwwwvvvvvuuuuuttttssssrrrrqqqqppppoooonnnmmmllllkkkjjjiiihhhggggfffeeedddcccbbbaa-..-
(PID.TID 0000.0001) //    136 -..-aabbbcccdddeeefffggghhhhiiijjjkkklllmmmmnnnooooppppqqqrrrrsssssttttuuuuuvvvvvwwwwwwxxxxxxxyyyyyyyyzzzzzzzzzzzzzz++++++++++++++++++++zzzzzzzzzzzzzzyyyyyyyyxxxxxxxwwwwwwvvvvvuuuuuttttsssssrrrrqqqppppoooonnnmmmmlllkkkjjjiiihhhhgggfffeeedddcccbbbaa-..-
(PID.TID 0000.0001) //    135 -..-aabbbcccdddeeefffggghhhhiiijjjkkklllmmmmnnnoooopppqqqqrrrrsssstttttuuuuuvvvvvwwwwwwxxxxxxyyyyyyyyyzzzzzzzzzzzzz++++++++++++++++++++++zzzzzzzzzzzzzyyyyyyyyyxxxxxxwwwwwwvvvvvuuuuutttttssssrrrrqqqqpppoooonnnmmmmlllkkkjjjiiihhhhgggfffeeedddcccbbbaa-..-
(PID.TID 0000.0001) //    134 -..-aabbbcccdddeeefffggghhhiiiijjjkkklllmmmmnnnoooopppqqqqrrrrsssstttttuuuuvvvvvvwwwwwxxxxxxxyyyyyyyyzzzzzzzzzzzzz++++++++++++++++++++++++zzzzzzzzzzzzzyyyyyyyyxxxxxxxwwwwwvvvvvvuuuutttttssssrrrrqqqqpppoooonnnmmmmlllkkkjjjiiiihhhgggfffeeedddcccbbbaa-..-
(PID.TID 0000.0001) //    133 a..aaabbbcccdddeeefffggghhhiiiijjjkkklllmmmmnnnoooopppqqqqrrrrsssstttttuuuuvvvvvwwwwwwxxxxxxxyyyyyyyyzzzzzzzzzzzz++++++++++++++++++++++++++zzzzzzzzzzzzyyyyyyyyxxxxxxxwwwwwwvvvvvuuuutttttssssrrrrqqqqpppoooonnnmmmmlllkkkjjjiiiihhhgggfffeeedddcccbbbaaa..a
(PID.TID 0000.0001) //    132 a..aaabbbcccdddeeefffggghhhiiiijjjkkklllmmmmnnnoooopppqqqqrrrrssssttttuuuuuvvvvvwwwwwwxxxxxxxyyyyyyyyzzzzzzzzzzzz++++++++++++++++++++++++++zzzzzzzzzzzzyyyyyyyyxxxxxxxwwwwwwvvvvvuuuuuttttssssrrrrqqqqpppoooonnnmmmmlllkkkjjjiiiihhhgggfffeeedddcccbbbaaa..a
(PID.TID 0000.0001) //    131 a..aaabbbcccdddeeefffggghhhiiiijjjkkklllmmmmnnnoooppppqqqqrrrrssssttttuuuuuvvvvvwwwwwwxxxxxxyyyyyyyyzzzzzzzzzzzz++++++++++++++++++++++++++++zzzzzzzzzzzzyyyyyyyyxxxxxxwwwwwwvvvvvuuuuuttttssssrrrrqqqqppppooonnnmmmmlllkkkjjjiiiihhhgggfffeeedddcccbbbaaa..a
(PID.TID 0000.0001) //    130 a..aaabbbcccdddeeefffggghhhiiijjjjkkklllmmmnnnnoooppppqqqqrrrrssssttttuuuuuvvvvvwwwwwwxxxxxxyyyyyyyyzzzzzzzzzzzz++++++++++++++++++++++++++++zzzzzzzzzzzzyyyyyyyyxxxxxxwwwwwwvvvvvuuuuuttttssssrrrrqqqqppppooonnnnmmmlllkkkjjjjiiihhhgggfffeeedddcccbbbaaa..a
(PID.TID 0000.0001) //    129 a..aaabbbcccdddeeefffggghhhiiijjjjkkklllmmmnnnnoooppppqqqqrrrrssssttttuuuuuvvvvvwwwwwwxxxxxxyyyyyyyyzzzzzzzzzzz++++++++++++++++++++++++++++++zzzzzzzzzzzyyyyyyyyxxxxxxwwwwwwvvvvvuuuuuttttssssrrrrqqqqppppooonnnnmmmlllkkkjjjjiiihhhgggfffeeedddcccbbbaaa..a
(PID.TID 0000.0001) //    128 a..aaabbbcccdddeeefffggghhhiiijjjjkkklllmmmnnnnoooppppqqqqrrrrssssttttuuuuuvvvvvwwwwwxxxxxxxyyyyyyyyzzzzzzzzzzz++++++++++++++++++++++++++++++zzzzzzzzzzzyyyyyyyyxxxxxxxwwwwwvvvvvuuuuuttttssssrrrrqqqqppppooonnnnmmmlllkkkjjjjiiihhhgggfffeeedddcccbbbaaa..a
(PID.TID 0000.0001) //    127 a..aaabbbcccdddeeefffggghhhiiijjjjkkklllmmmnnnnoooppppqqqqrrrrssssttttuuuuuvvvvvwwwwwxxxxxxxyyyyyyyyzzzzzzzzzzz++++++++++++++++++++++++++++++zzzzzzzzzzzyyyyyyyyxxxxxxxwwwwwvvvvvuuuuuttttssssrrrrqqqqppppooonnnnmmmlllkkkjjjjiiihhhgggfffeeedddcccbbbaaa..a
(PID.TID 0000.0001) //    126 a..aaabbbcccdddeeefffggghhhiiijjjjkkklllmmmnnnnoooppppqqqqrrrrssssttttuuuuuvvvvvwwwwwxxxxxxxyyyyyyyyzzzzzzzzzzz++++++++++++++++++++++++++++++zzzzzzzzzzzyyyyyyyyxxxxxxxwwwwwvvvvvuuuuuttttssssrrrrqqqqppppooonnnnmmmlllkkkjjjjiiihhhgggfffeeedddcccbbbaaa..a
(PID.TID 0000.0001) //    125 a..aaabbbcccdddeeefffggghhhiiijjjjkkklllmmmnnnnoooppppqqqqrrrrssssttttuuuuuvvvvvwwwwwxxxxxxxyyyyyyyyzzzzzzzzzzz++++++++++++++++++++++++++++++zzzzzzzzzzzyyyyyyyyxxxxxxxwwwwwvvvvvuuuuuttttssssrrrrqqqqppppooonnnnmmmlllkkkjjjjiiihhhgggfffeeedddcccbbbaaa..a
(PID.TID 0000.0001) //    124 a..aaabbbcccdddeeefffggghhhiiijjjjkkklllmmmnnnnoooppppqqqqrrrrssssttttuuuuuvvvvvwwwwwxxxxxxxyyyyyyyyzzzzzzzzzzz++++++++++++++++++++++++++++++zzzzzzzzzzzyyyyyyyyxxxxxxxwwwwwvvvvvuuuuuttttssssrrrrqqqqppppooonnnnmmmlllkkkjjjjiiihhhgggfffeeedddcccbbbaaa..a
(PID.TID 0000.0001) //    123 a..aaabbbcccdddeeefffggghhhiiijjjjkkklllmmmnnnnoooppppqqqqrrrrssssttttuuuuuvvvvvwwwwwxxxxxxxyyyyyyyyzzzzzzzzzzz++++++++++++++++++++++++++++++zzzzzzzzzzzyyyyyyyyxxxxxxxwwwwwvvvvvuuuuuttttssssrrrrqqqqppppooonnnnmmmlllkkkjjjjiiihhhgggfffeeedddcccbbbaaa..a
(PID.TID 0000.0001) //    122 a..aaabbbcccdddeeefffggghhhiiijjjjkkklllmmmnnnnoooppppqqqqrrrrssssttttuuuuuvvvvvwwwwwxxxxxxxyyyyyyyyzzzzzzzzzzz++++++++++++++++++++++++++++++zzzzzzzzzzzyyyyyyyyxxxxxxxwwwwwvvvvvuuuuuttttssssrrrrqqqqppppooonnnnmmmlllkkkjjjjiiihhhgggfffeeedddcccbbbaaa..a
(PID.TID 0000.0001) //    121 a..aaabbbcccdddeeefffggghhhiiijjjjkkklllmmmnnnnoooppppqqqqrrrrssssttttuuuuuvvvvvwwwwwxxxxxxxyyyyyyyyzzzzzzzzzzz++++++++++++++++++++++++++++++zzzzzzzzzzzyyyyyyyyxxxxxxxwwwwwvvvvvuuuuuttttssssrrrrqqqqppppooonnnnmmmlllkkkjjjjiiihhhgggfffeeedddcccbbbaaa..a
(PID.TID 0000.0001) //    120 a..aaabbbcccdddeeefffggghhhiiijjjjkkklllmmmnnnnoooppppqqqqrrrrssssttttuuuuuvvvvvwwwwwwxxxxxxyyyyyyyyzzzzzzzzzzz++++++++++++++++++++++++++++++zzzzzzzzzzzyyyyyyyyxxxxxxwwwwwwvvvvvuuuuuttttssssrrrrqqqqppppooonnnnmmmlllkkkjjjjiiihhhgggfffeeedddcccbbbaaa..a
(PID.TID 0000.0001) //    119 a..aaabbbcccdddeeefffggghhhiiijjjjkkklllmmmnnnnoooppppqqqqrrrrssssttttuuuuuvvvvvwwwwwwxxxxxxyyyyyyyyzzzzzzzzzzzz++++++++++++++++++++++++++++zzzzzzzzzzzzyyyyyyyyxxxxxxwwwwwwvvvvvuuuuuttttssssrrrrqqqqppppooonnnnmmmlllkkkjjjjiiihhhgggfffeeedddcccbbbaaa..a
(PID.TID 0000.0001) //    118 a..aaabbbcccdddeeefffggghhhiiiijjjkkklllmmmmnnnoooppppqqqqrrrrssssttttuuuuuvvvvvwwwwwwxxxxxxyyyyyyyyzzzzzzzzzzzz++++++++++++++++++++++++++++zzzzzzzzzzzzyyyyyyyyxxxxxxwwwwwwvvvvvuuuuuttttssssrrrrqqqqppppooonnnmmmmlllkkkjjjiiiihhhgggfffeeedddcccbbbaaa..a
(PID.TID 0000.0001) //    117 a..aaabbbcccdddeeefffggghhhiiiijjjkkklllmmmmnnnoooopppqqqqrrrrssssttttuuuuuvvvvvwwwwwwxxxxxxxyyyyyyyyzzzzzzzzzzzz++++++++++++++++++++++++++zzzzzzzzzzzzyyyyyyyyxxxxxxxwwwwwwvvvvvuuuuuttttssssrrrrqqqqpppoooonnnmmmmlllkkkjjjiiiihhhgggfffeeedddcccbbbaaa..a
(PID.TID 0000.0001) //    116 a..aaabbbcccdddeeefffggghhhiiiijjjkkklllmmmmnnnoooopppqqqqrrrrsssstttttuuuuvvvvvwwwwwwxxxxxxxyyyyyyyyzzzzzzzzzzzz++++++++++++++++++++++++++zzzzzzzzzzzzyyyyyyyyxxxxxxxwwwwwwvvvvvuuuutttttssssrrrrqqqqpppoooonnnmmmmlllkkkjjjiiiihhhgggfffeeedddcccbbbaaa..a
(PID.TID 0000.0001) //    115 -..-aabbbcccdddeeefffggghhhiiiijjjkkklllmmmmnnnoooopppqqqqrrrrsssstttttuuuuvvvvvvwwwwwxxxxxxxyyyyyyyyzzzzzzzzzzzzz++++++++++++++++++++++++zzzzzzzzzzzzzyyyyyyyyxxxxxxxwwwwwvvvvvvuuuutttttssssrrrrqqqqpppoooonnnmmmmlllkkkjjjiiiihhhgggfffeeedddcccbbbaa-..-
(PID.TID 0000.0001) //    114 -..-aabbbcccdddeeefffggghhhhiiijjjkkklllmmmmnnnoooopppqqqqrrrrsssstttttuuuuuvvvvvwwwwwwxxxxxxyyyyyyyyyzzzzzzzzzzzzz++++++++++++++++++++++zzzzzzzzzzzzzyyyyyyyyyxxxxxxwwwwwwvvvvvuuuuutttttssssrrrrqqqqpppoooonnnmmmmlllkkkjjjiiihhhhgggfffeeedddcccbbbaa-..-
(PID.TID 0000.0001) //    113 -..-aabbbcccdddeeefffggghhhhiiijjjkkklllmmmmnnnooooppppqqqrrrrsssssttttuuuuuvvvvvwwwwwwxxxxxxxyyyyyyyyzzzzzzzzzzzzzz++++++++++++++++++++zzzzzzzzzzzzzzyyyyyyyyxxxxxxxwwwwwwvvvvvuuuuuttttsssssrrrrqqqppppoooonnnmmmmlllkkkjjjiiihhhhgggfffeeedddcccbbbaa-..-
(PID.TID 0000.0001) //    112 -..-aabbbcccdddeeefffgggghhhiiijjjkkkllllmmmnnnooooppppqqqqrrrrssssttttuuuuuvvvvvwwwwwwxxxxxxxyyyyyyyyyzzzzzzzzzzzzzz++++++++++++++++++zzzzzzzzzzzzzzyyyyyyyyyxxxxxxxwwwwwwvvvvvuuuuuttttssssrrrrqqqqppppoooonnnmmmllllkkkjjjiiihhhggggfffeeedddcccbbbaa-..-
(PID.TID 0000.0001) //    111 -..-aabbbcccdddeeeffffggghhhiiijjjkkkllllmmmnnnnoooppppqqqqrrrrssssttttuuuuuvvvvvvwwwwwxxxxxxxyyyyyyyyyzzzzzzzzzzzzzzzz++++++++++++++zzzzzzzzzzzzzzzzyyyyyyyyyxxxxxxxwwwwwvvvvvvuuuuuttttssssrrrrqqqqppppooonnnnmmmllllkkkjjjiiihhhgggffffeeedddcccbbbaa-..-
(PID.TID 0000.0001) //    110 -..-aabbbcccdddeeeffffggghhhiiijjjkkkllllmmmnnnnoooppppqqqqrrrrsssstttttuuuuuvvvvvwwwwwwxxxxxxxyyyyyyyyyzzzzzzzzzzzzzzzzz++++++++++zzzzzzzzzzzzzzzzzyyyyyyyyyxxxxxxxwwwwwwvvvvvuuuuutttttssssrrrrqqqqppppooonnnnmmmllllkkkjjjiiihhhgggffffeeedddcccbbbaa-..-
(PID.TID 0000.0001) //    109 -..-aaabbcccddddeeefffggghhhiiijjjkkkllllmmmnnnnoooppppqqqqrrrrsssstttttuuuuuvvvvvwwwwwwxxxxxxxyyyyyyyyyzzzzzzzzzzzzzzzzzzzzzzzzzzzzzzzzzzzzzzzzzzzzyyyyyyyyyxxxxxxxwwwwwwvvvvvuuuuutttttssssrrrrqqqqppppooonnnnmmmllllkkkjjjiiihhhgggfffeeeddddcccbbaaa-..-
(PID.TID 0000.0001) //    108 -..-aaabbbcccdddeeefffggghhhiiijjjkkkklllmmmnnnnoooopppqqqqrrrrsssssttttuuuuuvvvvvwwwwwwwxxxxxxxyyyyyyyyyzzzzzzzzzzzzzzzzzzzzzzzzzzzzzzzzzzzzzzzzzzyyyyyyyyyxxxxxxxwwwwwwwvvvvvuuuuuttttsssssrrrrqqqqpppoooonnnnmmmlllkkkkjjjiiihhhgggfffeeedddcccbbbaaa-..-
(PID.TID 0000.0001) //    107 -..-aaabbbcccdddeeefffggghhhiiijjjkkkklllmmmnnnnoooopppqqqqrrrrsssssttttuuuuuvvvvvvwwwwwwxxxxxxxyyyyyyyyyyzzzzzzzzzzzzzzzzzzzzzzzzzzzzzzzzzzzzzzzzyyyyyyyyyyxxxxxxxwwwwwwvvvvvvuuuuuttttsssssrrrrqqqqpppoooonnnnmmmlllkkkkjjjiiihhhgggfffeeedddcccbbbaaa-..-
(PID.TID 0000.0001) //    106 -..-aaabbbcccdddeeefffggghhhiiijjjkkkklllmmmmnnnooooppppqqqqrrrrsssstttttuuuuuvvvvvwwwwwwxxxxxxxxyyyyyyyyyyzzzzzzzzzzzzzzzzzzzzzzzzzzzzzzzzzzzzzzyyyyyyyyyyxxxxxxxxwwwwwwvvvvvuuuuutttttssssrrrrqqqqppppoooonnnmmmmlllkkkkjjjiiihhhgggfffeeedddcccbbbaaa-..-
(PID.TID 0000.0001) //    105 -..-aaabbbcccdddeeefffggghhhiiijjjjkkklllmmmmnnnooooppppqqqqrrrrsssstttttuuuuuvvvvvvwwwwwwxxxxxxxxyyyyyyyyyyzzzzzzzzzzzzzzzzzzzzzzzzzzzzzzzzzzzzyyyyyyyyyyxxxxxxxxwwwwwwvvvvvvuuuuutttttssssrrrrqqqqppppoooonnnmmmmlllkkkjjjjiiihhhgggfffeeedddcccbbbaaa-..-
(PID.TID 0000.0001) //    104 -..-aaabbbcccdddeeefffggghhhiiijjjjkkklllmmmmnnnnoooppppqqqqrrrrsssssttttuuuuuvvvvvvwwwwwwwxxxxxxxyyyyyyyyyyyzzzzzzzzzzzzzzzzzzzzzzzzzzzzzzzzzzyyyyyyyyyyyxxxxxxxwwwwwwwvvvvvvuuuuuttttsssssrrrrqqqqppppooonnnnmmmmlllkkkjjjjiiihhhgggfffeeedddcccbbbaaa-..-
(PID.TID 0000.0001) //    103 -..-aaabbbcccdddeeefffggghhhiiiijjjkkkllllmmmnnnnoooppppqqqqrrrrssssstttttuuuuuvvvvvvwwwwwwxxxxxxxxyyyyyyyyyyyzzzzzzzzzzzzzzzzzzzzzzzzzzzzzzzzyyyyyyyyyyyxxxxxxxxwwwwwwvvvvvvuuuuutttttsssssrrrrqqqqppppooonnnnmmmllllkkkjjjiiiihhhgggfffeeedddcccbbbaaa-..-
(PID.TID 0000.0001) //    102 -..-aaabbbcccdddeeefffggghhhiiiijjjkkkllllmmmnnnnooooppppqqqqrrrrsssstttttuuuuuvvvvvvwwwwwwwxxxxxxxxyyyyyyyyyyyyzzzzzzzzzzzzzzzzzzzzzzzzzzzzyyyyyyyyyyyyxxxxxxxxwwwwwwwvvvvvvuuuuutttttssssrrrrqqqqppppoooonnnnmmmllllkkkjjjiiiihhhgggfffeeedddcccbbbaaa-..-
(PID.TID 0000.0001) //    101 -..-aaabbbcccdddeeefffggghhhhiiijjjkkkllllmmmnnnnooooppppqqqqrrrrsssssttttuuuuuuvvvvvvwwwwwwxxxxxxxxxyyyyyyyyyyyyyzzzzzzzzzzzzzzzzzzzzzzzzyyyyyyyyyyyyyxxxxxxxxxwwwwwwvvvvvvuuuuuuttttsssssrrrrqqqqppppoooonnnnmmmllllkkkjjjiiihhhhgggfffeeedddcccbbbaaa-..-
(PID.TID 0000.0001) //    100 -..-aaabbbcccdddeeefffggghhhhiiijjjkkkklllmmmmnnnooooppppqqqqrrrrssssstttttuuuuuvvvvvvwwwwwwwxxxxxxxxxyyyyyyyyyyyyyyzzzzzzzzzzzzzzzzzzzzyyyyyyyyyyyyyyxxxxxxxxxwwwwwwwvvvvvvuuuuutttttsssssrrrrqqqqppppoooonnnmmmmlllkkkkjjjiiihhhhgggfffeeedddcccbbbaaa-..-
(PID.TID 0000.0001) //     99 -..-aaabbbcccdddeeefffggghhhhiiijjjkkkklllmmmmnnnnoooppppqqqqrrrrrsssstttttuuuuuuvvvvvvwwwwwwwxxxxxxxxxyyyyyyyyyyyyyyyyzzzzzzzzzzzzzzyyyyyyyyyyyyyyyyxxxxxxxxxwwwwwwwvvvvvvuuuuuutttttssssrrrrrqqqqppppooonnnnmmmmlllkkkkjjjiiihhhhgggfffeeedddcccbbbaaa-..-
(PID.TID 0000.0001) //     98 -..-aaabbbcccdddeeefffgggghhhiiijjjjkkklllmmmmnnnnooooppppqqqqrrrrssssstttttuuuuuvvvvvvwwwwwwwwxxxxxxxxxyyyyyyyyyyyyyyyyyyyyyyyyyyyyyyyyyyyyyyyyyyyyxxxxxxxxxwwwwwwwwvvvvvvuuuuutttttsssssrrrrqqqqppppoooonnnnmmmmlllkkkjjjjiiihhhggggfffeeedddcccbbbaaa-..-
(PID.TID 0000.0001) //     97 -..-aaabbbcccdddeeefffgggghhhiiijjjjkkkllllmmmnnnnooooppppqqqqrrrrssssstttttuuuuuuvvvvvvwwwwwwwxxxxxxxxxxyyyyyyyyyyyyyyyyyyyyyyyyyyyyyyyyyyyyyyyyyyxxxxxxxxxxwwwwwwwvvvvvvuuuuuutttttsssssrrrrqqqqppppoooonnnnmmmllllkkkjjjjiiihhhggggfffeeedddcccbbbaaa-..-
(PID.TID 0000.0001) //     96 -..-aaabbbcccdddeeeffffggghhhiiijjjjkkkllllmmmmnnnooooppppqqqqrrrrrssssstttttuuuuuvvvvvvvwwwwwwwxxxxxxxxxxxyyyyyyyyyyyyyyyyyyyyyyyyyyyyyyyyyyyyyyxxxxxxxxxxxwwwwwwwvvvvvvvuuuuutttttsssssrrrrrqqqqppppoooonnnmmmmllllkkkjjjjiiihhhgggffffeeedddcccbbbaaa-..-
(PID.TID 0000.0001) //     95 -..-aaabbbcccdddeeeffffggghhhiiiijjjkkkklllmmmmnnnnooopppppqqqqrrrrssssstttttuuuuuuvvvvvvvwwwwwwwxxxxxxxxxxxyyyyyyyyyyyyyyyyyyyyyyyyyyyyyyyyyyyyxxxxxxxxxxxwwwwwwwvvvvvvvuuuuuutttttsssssrrrrqqqqpppppooonnnnmmmmlllkkkkjjjiiiihhhgggffffeeedddcccbbbaaa-..-
(PID.TID 0000.0001) //     94 -..-aaabbbcccdddeeeefffggghhhiiiijjjkkkklllmmmmnnnnooooppppqqqqrrrrrssssstttttuuuuuuvvvvvvwwwwwwwwxxxxxxxxxxxxyyyyyyyyyyyyyyyyyyyyyyyyyyyyyyyyxxxxxxxxxxxxwwwwwwwwvvvvvvuuuuuutttttsssssrrrrrqqqqppppoooonnnnmmmmlllkkkkjjjiiiihhhgggfffeeeedddcccbbbaaa-..-
(PID.TID 0000.0001) //     93 -..-aaabbbcccdddeeeefffggghhhhiiijjjkkkkllllmmmnnnnooooppppqqqqqrrrrssssstttttuuuuuuvvvvvvvwwwwwwwwwxxxxxxxxxxxxyyyyyyyyyyyyyyyyyyyyyyyyyyyyxxxxxxxxxxxxwwwwwwwwwvvvvvvvuuuuuutttttsssssrrrrqqqqqppppoooonnnnmmmllllkkkkjjjiiihhhhgggfffeeeedddcccbbbaaa-..-
(PID.TID 0000.0001) //     92 -..-aaabbbcccdddeeeefffggghhhhiiijjjjkkkllllmmmmnnnoooopppppqqqqrrrrrssssstttttuuuuuuvvvvvvvwwwwwwwwwxxxxxxxxxxxxxxyyyyyyyyyyyyyyyyyyyyyyxxxxxxxxxxxxxxwwwwwwwwwvvvvvvvuuuuuutttttsssssrrrrrqqqqpppppoooonnnmmmmllllkkkjjjjiiihhhhgggfffeeeedddcccbbbaaa-..-
(PID.TID 0000.0001) //     91 -..-aaabbbcccddddeeefffggghhhhiiijjjjkkkllllmmmmnnnnooooppppqqqqrrrrrsssssttttttuuuuuuvvvvvvvwwwwwwwwwxxxxxxxxxxxxxxxxxyyyyyyyyyyyyyyxxxxxxxxxxxxxxxxxwwwwwwwwwvvvvvvvuuuuuuttttttsssssrrrrrqqqqppppoooonnnnmmmmllllkkkjjjjiiihhhhgggfffeeeddddcccbbbaaa-..-
(PID.TID 0000.0001) //     90 -..-aaabbbcccddddeeefffgggghhhiiiijjjkkkklllmmmmnnnnooooppppqqqqqrrrrrssssstttttuuuuuuuvvvvvvvwwwwwwwwwwxxxxxxxxxxxxxxxxxxxxxxxxxxxxxxxxxxxxxxxxxxxxwwwwwwwwwwvvvvvvvuuuuuuutttttsssssrrrrrqqqqqppppoooonnnnmmmmlllkkkkjjjiiiihhhggggfffeeeddddcccbbbaaa-..-
(PID.TID 0000.0001) //     89 -..-aaabbbcccddddeeefffgggghhhiiiijjjkkkkllllmmmnnnnoooooppppqqqqrrrrrsssssttttttuuuuuuuvvvvvvvwwwwwwwwwwwxxxxxxxxxxxxxxxxxxxxxxxxxxxxxxxxxxxxxxxxwwwwwwwwwwwvvvvvvvuuuuuuuttttttsssssrrrrrqqqqppppooooonnnnmmmllllkkkkjjjiiiihhhggggfffeeeddddcccbbbaaa-..-
(PID.TID 0000.0001) //     88 -..-aaabbbccccdddeeeffffggghhhiiiijjjjkkkllllmmmmnnnnooooppppqqqqqrrrrrsssssttttttuuuuuuuvvvvvvvvwwwwwwwwwwxxxxxxxxxxxxxxxxxxxxxxxxxxxxxxxxxxxxxxwwwwwwwwwwvvvvvvvvuuuuuuuttttttsssssrrrrrqqqqqppppoooonnnnmmmmllllkkkjjjjiiiihhhgggffffeeedddccccbbbaaa-..-
(PID.TID 0000.0001) //     87 -..-aaabbbccccdddeeeffffggghhhhiiijjjjkkkllllmmmmnnnnoooopppppqqqqrrrrrssssssttttttuuuuuuuvvvvvvvvwwwwwwwwwwwwxxxxxxxxxxxxxxxxxxxxxxxxxxxxxxxxwwwwwwwwwwwwvvvvvvvvuuuuuuuttttttssssssrrrrrqqqqpppppoooonnnnmmmmllllkkkjjjjiiihhhhgggffffeeedddccccbbbaaa-..-
(PID.TID 0000.0001) //     86 -..-aaabbbccccdddeeeffffggghhhhiiijjjjkkkkllllmmmmnnnnooooppppqqqqqrrrrrssssssttttttuuuuuuuvvvvvvvvwwwwwwwwwwwwwxxxxxxxxxxxxxxxxxxxxxxxxxxxxwwwwwwwwwwwwwvvvvvvvvuuuuuuuttttttssssssrrrrrqqqqqppppoooonnnnmmmmllllkkkkjjjjiiihhhhgggffffeeedddccccbbbaaa-..-
(PID.TID 0000.0001) //     85 -..-aaabbbccccdddeeeefffggghhhhiiiijjjkkkkllllmmmmnnnnoooopppppqqqqqrrrrrssssstttttttuuuuuuuvvvvvvvvvwwwwwwwwwwwwwwwxxxxxxxxxxxxxxxxxxxxwwwwwwwwwwwwwwwvvvvvvvvvuuuuuuutttttttsssssrrrrrqqqqqpppppoooonnnnmmmmllllkkkkjjjiiiihhhhgggfffeeeedddccccbbbaaa-..-
(PID.TID 0000.0001) //     84 -..-aaabbbccccdddeeeefffgggghhhiiiijjjjkkkllllmmmmnnnnoooooppppqqqqqrrrrrsssssstttttttuuuuuuuvvvvvvvvvvwwwwwwwwwwwwwwwwwwwxxxxxxxxwwwwwwwwwwwwwwwwwwwvvvvvvvvvvuuuuuuutttttttssssssrrrrrqqqqqppppooooonnnnmmmmllllkkkjjjjiiiihhhggggfffeeeedddccccbbbaaa-..-
(PID.TID 0000.0001) //     83 -..-aaabbbccccdddeeeefffgggghhhiiiijjjjkkkkllllmmmmnnnnoooopppppqqqqqrrrrrsssssstttttttuuuuuuuvvvvvvvvvvvwwwwwwwwwwwwwwwwwwwwwwwwwwwwwwwwwwwwwwwwwwvvvvvvvvvvvuuuuuuutttttttssssssrrrrrqqqqqpppppoooonnnnmmmmllllkkkkjjjjiiiihhhggggfffeeeedddccccbbbaaa-..-
(PID.TID 0000.0001) //     82 -..-aaabbbbcccdddeeeefffgggghhhhiiijjjjkkkkllllmmmmnnnnooooopppppqqqqqrrrrrsssssstttttttuuuuuuuuvvvvvvvvvvvwwwwwwwwwwwwwwwwwwwwwwwwwwwwwwwwwwwwwwvvvvvvvvvvvuuuuuuuutttttttssssssrrrrrqqqqqpppppooooonnnnmmmmllllkkkkjjjjiiihhhhggggfffeeeedddcccbbbbaaa-..-
(PID.TID 0000.0001) //     81 -..-aaabbbbcccddddeeeffffggghhhhiiiijjjkkkkllllmmmmmnnnnoooopppppqqqqqrrrrrrsssssstttttttuuuuuuuuvvvvvvvvvvvvwwwwwwwwwwwwwwwwwwwwwwwwwwwwwwwwwwvvvvvvvvvvvvuuuuuuuutttttttssssssrrrrrrqqqqqpppppoooonnnnmmmmmllllkkkkjjjiiiihhhhgggffffeeeddddcccbbbbaaa-..-
(PID.TID 0000.0001) //     80 -..-aaabbbbcccddddeeeffffggghhhhiiiijjjjkkkkllllmmmmnnnnooooopppppqqqqqrrrrrrsssssstttttttuuuuuuuuuvvvvvvvvvvvvvvwwwwwwwwwwwwwwwwwwwwwwwwwwvvvvvvvvvvvvvvuuuuuuuuutttttttssssssrrrrrrqqqqqpppppooooonnnnmmmmllllkkkkjjjjiiiihhhhgggffffeeeddddcccbbbbaaa-..-
(PID.TID 0000.0001) //     79 -..-aaabbbbcccddddeeeffffgggghhhiiiijjjjkkkkllllmmmmnnnnnoooooppppqqqqqqrrrrrrsssssstttttttuuuuuuuuuuvvvvvvvvvvvvvvvvwwwwwwwwwwwwwwwwwwvvvvvvvvvvvvvvvvuuuuuuuuuutttttttssssssrrrrrrqqqqqqppppooooonnnnnmmmmllllkkkkjjjjiiiihhhggggffffeeeddddcccbbbbaaa-..-
(PID.TID 0000.0001) //     78 -..-aaabbbbcccddddeeeefffgggghhhhiiiijjjkkkklllllmmmmnnnnooooopppppqqqqqqrrrrrsssssssttttttttuuuuuuuuuuvvvvvvvvvvvvvvvvvvvvvvvvvvvvvvvvvvvvvvvvvvvvvvuuuuuuuuuuttttttttsssssssrrrrrqqqqqqpppppooooonnnnmmmmlllllkkkkjjjiiiihhhhggggfffeeeeddddcccbbbbaaa-..-
(PID.TID 0000.0001) //     77 -..-aaabbbbcccddddeeeefffgggghhhhiiiijjjjkkkkllllmmmmnnnnnooooopppppqqqqqrrrrrrsssssssttttttttuuuuuuuuuuuvvvvvvvvvvvvvvvvvvvvvvvvvvvvvvvvvvvvvvvvvvuuuuuuuuuuuttttttttsssssssrrrrrrqqqqqpppppooooonnnnnmmmmllllkkkkjjjjiiiihhhhggggfffeeeeddddcccbbbbaaa-..-
(PID.TID 0000.0001) //     76 -..-aaabbbbccccdddeeeeffffggghhhhiiiijjjjkkkklllllmmmmnnnnnooooopppppqqqqqrrrrrrrsssssssttttttttuuuuuuuuuuuuvvvvvvvvvvvvvvvvvvvvvvvvvvvvvvvvvvvvuuuuuuuuuuuuttttttttsssssssrrrrrrrqqqqqpppppooooonnnnnmmmmlllllkkkkjjjjiiiihhhhgggffffeeeedddccccbbbbaaa-..-
(PID.TID 0000.0001) //     75 -..-aaabbbbccccdddeeeeffffgggghhhhiiiijjjjkkkkllllmmmmmnnnnoooooppppppqqqqqrrrrrrrssssssstttttttttuuuuuuuuuuuuuuvvvvvvvvvvvvvvvvvvvvvvvvvvvvuuuuuuuuuuuuuutttttttttsssssssrrrrrrrqqqqqppppppooooonnnnmmmmmllllkkkkjjjjiiiihhhhggggffffeeeedddccccbbbbaaa-..-
(PID.TID 0000.0001) //     74 -..-aaaabbbccccddddeeeffffgggghhhhiiiijjjjkkkklllllmmmmnnnnnooooopppppqqqqqqrrrrrrrsssssssttttttttttuuuuuuuuuuuuuuuuvvvvvvvvvvvvvvvvvvvvuuuuuuuuuuuuuuuuttttttttttsssssssrrrrrrrqqqqqqpppppooooonnnnnmmmmlllllkkkkjjjjiiiihhhhggggffffeeeddddccccbbbaaaa-..-
(PID.TID 0000.0001) //     73 -..-aaaabbbccccddddeeeffffgggghhhhiiiijjjjkkkkkllllmmmmmnnnnnooooopppppqqqqqqrrrrrrrssssssssttttttttttuuuuuuuuuuuuuuuuuuuuuuuuuuuuuuuuuuuuuuuuuuuuuuuuttttttttttssssssssrrrrrrrqqqqqqpppppooooonnnnnmmmmmllllkkkkkjjjjiiiihhhhggggffffeeeddddccccbbbaaaa-..-
(PID.TID 0000.0001) //     72 -..-aaaabbbccccddddeeeeffffgggghhhhiiiijjjjkkkklllllmmmmnnnnnoooooopppppqqqqqqrrrrrrrssssssssstttttttttttuuuuuuuuuuuuuuuuuuuuuuuuuuuuuuuuuuuuuuuuuutttttttttttsssssssssrrrrrrrqqqqqqpppppoooooonnnnnmmmmlllllkkkkjjjjiiiihhhhggggffffeeeeddddccccbbbaaaa-..-
(PID.TID 0000.0001) //     71 -..-aaaabbbccccddddeeeeffffgggghhhhiiiijjjjkkkkkllllmmmmmnnnnnoooooppppppqqqqqqqrrrrrrrsssssssssttttttttttttuuuuuuuuuuuuuuuuuuuuuuuuuuuuuuuuuuuuttttttttttttsssssssssrrrrrrrqqqqqqqppppppooooonnnnnmmmmmllllkkkkkjjjjiiiihhhhggggffffeeeeddddccccbbbaaaa-..-
(PID.TID 0000.0001) //     70 -..-aaaabbbbcccddddeeeeffffgggghhhhiiiijjjjjkkkklllllmmmmmnnnnnoooooppppppqqqqqqqrrrrrrrssssssssssttttttttttttttuuuuuuuuuuuuuuuuuuuuuuuuuuuuttttttttttttttssssssssssrrrrrrrqqqqqqqppppppooooonnnnnmmmmmlllllkkkkjjjjjiiiihhhhggggffffeeeeddddcccbbbbaaaa-..-
(PID.TID 0000.0001) //     69 -..-aaaabbbbccccdddeeeeffffgggghhhhhiiiijjjjkkkkklllllmmmmnnnnnnoooooppppppqqqqqqqrrrrrrrrssssssssssttttttttttttttttttuuuuuuuuuuuuuuuuttttttttttttttttttssssssssssrrrrrrrrqqqqqqqppppppooooonnnnnnmmmmlllllkkkkkjjjjiiiihhhhhggggffffeeeedddccccbbbbaaaa-..-
(PID.TID 0000.0001) //     68 -..-aaaabbbbccccddddeeeeffffgggghhhhiiiijjjjjkkkklllllmmmmmnnnnnnooooopppppppqqqqqqqrrrrrrrrsssssssssssttttttttttttttttttttttttttttttttttttttttttttttsssssssssssrrrrrrrrqqqqqqqpppppppooooonnnnnnmmmmmlllllkkkkjjjjjiiiihhhhggggffffeeeeddddccccbbbbaaaa-..-
(PID.TID 0000.0001) //     67 -..-aaaabbbbccccddddeeeeffffgggghhhhiiiiijjjjkkkkklllllmmmmmnnnnnoooooopppppppqqqqqqqrrrrrrrrrssssssssssssttttttttttttttttttttttttttttttttttttttttssssssssssssrrrrrrrrrqqqqqqqpppppppoooooonnnnnmmmmmlllllkkkkkjjjjiiiiihhhhggggffffeeeeddddccccbbbbaaaa-..-
(PID.TID 0000.0001) //     66 -..-aaaabbbbccccddddeeeeffffggggghhhhiiiijjjjjkkkkklllllmmmmmnnnnnoooooopppppppqqqqqqqqrrrrrrrrrssssssssssssssttttttttttttttttttttttttttttttttssssssssssssssrrrrrrrrrqqqqqqqqpppppppoooooonnnnnmmmmmlllllkkkkkjjjjjiiiihhhhgggggffffeeeeddddccccbbbbaaaa-..-
(PID.TID 0000.0001) //     65 -..-aaaabbbbccccddddeeeefffffgggghhhhiiiiijjjjkkkkklllllmmmmmmnnnnnoooooooppppppqqqqqqqqrrrrrrrrrrsssssssssssssssssttttttttttttttttttttttsssssssssssssssssrrrrrrrrrrqqqqqqqqppppppooooooonnnnnmmmmmmlllllkkkkkjjjjiiiiihhhhggggfffffeeeeddddccccbbbbaaaa-..-
(PID.TID 0000.0001) //     64 -..-aaaabbbbccccddddeeeeeffffgggghhhhhiiiijjjjjkkkkklllllmmmmmmnnnnnooooooopppppppqqqqqqqqrrrrrrrrrrrssssssssssssssssssssssssssssssssssssssssssssssssssrrrrrrrrrrrqqqqqqqqpppppppooooooonnnnnmmmmmmlllllkkkkkjjjjjiiiihhhhhggggffffeeeeeddddccccbbbbaaaa-..-
(PID.TID 0000.0001) //     63 -..-aaaabbbbccccdddddeeeeffffggggghhhhiiiiijjjjjkkkkklllllmmmmmmnnnnnnooooooppppppppqqqqqqqqrrrrrrrrrrrrssssssssssssssssssssssssssssssssssssssssssssrrrrrrrrrrrrqqqqqqqqppppppppoooooonnnnnnmmmmmmlllllkkkkkjjjjjiiiiihhhhgggggffffeeeedddddccccbbbbaaaa-..-
(PID.TID 0000.0001) //     62 -..-aaaabbbbcccccddddeeeefffffgggghhhhhiiiijjjjjkkkkkllllllmmmmmmnnnnnnooooooopppppppqqqqqqqqqqrrrrrrrrrrrrrssssssssssssssssssssssssssssssssssssrrrrrrrrrrrrrqqqqqqqqqqpppppppooooooonnnnnnmmmmmmllllllkkkkkjjjjjiiiihhhhhggggfffffeeeeddddcccccbbbbaaaa-..-
(PID.TID 0000.0001) //     61 -..-aaaabbbbbccccddddeeeeeffffggggghhhhiiiiijjjjjkkkkkllllllmmmmmmnnnnnnoooooooppppppppqqqqqqqqqqrrrrrrrrrrrrrrrrrssssssssssssssssssssssssrrrrrrrrrrrrrrrrrqqqqqqqqqqppppppppooooooonnnnnnmmmmmmllllllkkkkkjjjjjiiiiihhhhgggggffffeeeeeddddccccbbbbbaaaa-..-
(PID.TID 0000.0001) //     60 -..-aaaabbbbbccccddddeeeeeffffggggghhhhhiiiiijjjjjkkkkkllllllmmmmmmnnnnnnooooooooppppppppqqqqqqqqqqqrrrrrrrrrrrrrrrrrrrrrrrrrrrrrrrrrrrrrrrrrrrrrrrrrrrrqqqqqqqqqqqppppppppoooooooonnnnnnmmmmmmllllllkkkkkjjjjjiiiiihhhhhgggggffffeeeeeddddccccbbbbbaaaa-..-
(PID.TID 0000.0001) //     59 -..-aaaaabbbbccccdddddeeeefffffggggghhhhiiiiijjjjjkkkkkkllllllmmmmmmnnnnnnnooooooopppppppppqqqqqqqqqqqqqrrrrrrrrrrrrrrrrrrrrrrrrrrrrrrrrrrrrrrrrrrrrqqqqqqqqqqqqqpppppppppooooooonnnnnnnmmmmmmllllllkkkkkkjjjjjiiiiihhhhgggggfffffeeeedddddccccbbbbaaaaa-..-
(PID.TID 0000.0001) //     58 -..-aaaaabbbbcccccddddeeeeeffffggggghhhhhiiiiijjjjjkkkkkkllllllmmmmmmnnnnnnnooooooooppppppppppqqqqqqqqqqqqqqrrrrrrrrrrrrrrrrrrrrrrrrrrrrrrrrrrrrqqqqqqqqqqqqqqppppppppppoooooooonnnnnnnmmmmmmllllllkkkkkkjjjjjiiiiihhhhhgggggffffeeeeeddddcccccbbbbaaaaa-..-
(PID.TID 0000.0001) //     57 -..-aaaaabbbbcccccddddeeeeefffffggggghhhhhiiiiijjjjjkkkkkkllllllmmmmmmnnnnnnnnoooooooopppppppppppqqqqqqqqqqqqqqqqqrrrrrrrrrrrrrrrrrrrrrrrrqqqqqqqqqqqqqqqqqpppppppppppoooooooonnnnnnnnmmmmmmllllllkkkkkkjjjjjiiiiihhhhhgggggfffffeeeeeddddcccccbbbbaaaaa-..-
(PID.TID 0000.0001) //     56 -..-aaaaabbbbcccccdddddeeeefffffggggghhhhhiiiiijjjjjjkkkkkkllllllmmmmmmmnnnnnnnoooooooooppppppppppppqqqqqqqqqqqqqqqqqqqqqqqqqqqqqqqqqqqqqqqqqqqqqqqqqqqqppppppppppppooooooooonnnnnnnmmmmmmmllllllkkkkkkjjjjjjiiiiihhhhhgggggfffffeeeedddddcccccbbbbaaaaa-..-
(PID.TID 0000.0001) //     55 -..-aaaaabbbbbccccdddddeeeeefffffggggghhhhhiiiiijjjjjjkkkkkkllllllmmmmmmmnnnnnnnnoooooooooopppppppppppppqqqqqqqqqqqqqqqqqqqqqqqqqqqqqqqqqqqqqqqqqqqqpppppppppppppoooooooooonnnnnnnnmmmmmmmllllllkkkkkkjjjjjjiiiiihhhhhgggggfffffeeeeedddddccccbbbbbaaaaa-..-
(PID.TID 0000.0001) //     54 -..-aaaaabbbbbccccdddddeeeeefffffggggghhhhhhiiiiijjjjjjkkkkkklllllllmmmmmmmnnnnnnnnoooooooooopppppppppppppppqqqqqqqqqqqqqqqqqqqqqqqqqqqqqqqqqqqqpppppppppppppppoooooooooonnnnnnnnmmmmmmmlllllllkkkkkkjjjjjjiiiiihhhhhhgggggfffffeeeeedddddccccbbbbbaaaaa-..-
(PID.TID 0000.0001) //     53 -..-aaaaabbbbbcccccdddddeeeeefffffggggghhhhhiiiiiijjjjjjkkkkkklllllllmmmmmmmmnnnnnnnnooooooooooopppppppppppppppppppqqqqqqqqqqqqqqqqqqqqqqpppppppppppppppppppooooooooooonnnnnnnnmmmmmmmmlllllllkkkkkkjjjjjjiiiiiihhhhhgggggfffffeeeeedddddcccccbbbbbaaaaa-..-
(PID.TID 0000.0001) //     52 -..-aaaaabbbbbcccccdddddeeeeefffffgggggghhhhhiiiiiijjjjjjkkkkkkllllllllmmmmmmmnnnnnnnnnnooooooooooooppppppppppppppppppppppppppppppppppppppppppppppppppppoooooooooooonnnnnnnnnnmmmmmmmllllllllkkkkkkjjjjjjiiiiiihhhhhggggggfffffeeeeedddddcccccbbbbbaaaaa-..-
(PID.TID 0000.0001) //     51 -..-aaaaabbbbbcccccdddddeeeeeefffffggggghhhhhhiiiiiijjjjjjkkkkkkklllllllmmmmmmmmnnnnnnnnnnooooooooooooooppppppppppppppppppppppppppppppppppppppppppppoooooooooooooonnnnnnnnnnmmmmmmmmlllllllkkkkkkkjjjjjjiiiiiihhhhhhgggggfffffeeeeeedddddcccccbbbbbaaaaa-..-
(PID.TID 0000.0001) //     50 -..--aaaaabbbbbcccccdddddeeeeefffffgggggghhhhhhiiiiiijjjjjjkkkkkkkllllllllmmmmmmmmmnnnnnnnnnnoooooooooooooooooppppppppppppppppppppppppppppppppooooooooooooooooonnnnnnnnnnmmmmmmmmmllllllllkkkkkkkjjjjjjiiiiiihhhhhhggggggfffffeeeeedddddcccccbbbbbaaaaa--..-
(PID.TID 0000.0001) //     49 -..--aaaaabbbbbcccccdddddeeeeeefffffgggggghhhhhhiiiiiijjjjjjkkkkkkkkllllllllmmmmmmmmmnnnnnnnnnnnnooooooooooooooooooooooppppppppppppppoooooooooooooooooooooonnnnnnnnnnnnmmmmmmmmmllllllllkkkkkkkkjjjjjjiiiiiihhhhhhggggggfffffeeeeeedddddcccccbbbbbaaaaa--..-
(PID.TID 0000.0001) //     48 -..--aaaaabbbbbcccccddddddeeeeeffffffgggggghhhhhhiiiiiijjjjjjjkkkkkkklllllllllmmmmmmmmmmnnnnnnnnnnnnnoooooooooooooooooooooooooooooooooooooooooooooooooonnnnnnnnnnnnnmmmmmmmmmmlllllllllkkkkkkkjjjjjjjiiiiiihhhhhhggggggffffffeeeeeddddddcccccbbbbbaaaaa--..-
(PID.TID 0000.0001) //     47 -..--aaaaabbbbbccccccdddddeeeeeefffffgggggghhhhhhhiiiiiijjjjjjjkkkkkkkklllllllllmmmmmmmmmmnnnnnnnnnnnnnnnnoooooooooooooooooooooooooooooooooooooooonnnnnnnnnnnnnnnnmmmmmmmmmmlllllllllkkkkkkkkjjjjjjjiiiiiihhhhhhhggggggfffffeeeeeedddddccccccbbbbbaaaaa--..-
(PID.TID 0000.0001) //     46 -..--aaaaabbbbbbcccccddddddeeeeeffffffgggggghhhhhhhiiiiiijjjjjjjjkkkkkkkklllllllllmmmmmmmmmmmmnnnnnnnnnnnnnnnnnnnoooooooooooooooooooooooooonnnnnnnnnnnnnnnnnnnmmmmmmmmmmmmlllllllllkkkkkkkkjjjjjjjjiiiiiihhhhhhhggggggffffffeeeeeddddddcccccbbbbbbaaaaa--..-
(PID.TID 0000.0001) //     45 -..--aaaaabbbbbbcccccddddddeeeeeeffffffgggggghhhhhhhiiiiiiijjjjjjjkkkkkkkkkllllllllllmmmmmmmmmmmmmnnnnnnnnnnnnnnnnnnnnnnnnnnnnnnnnnnnnnnnnnnnnnnnnnnnnnnnnmmmmmmmmmmmmmllllllllllkkkkkkkkkjjjjjjjiiiiiiihhhhhhhggggggffffffeeeeeeddddddcccccbbbbbbaaaaa--..-
(PID.TID 0000.0001) //     44 -..--aaaaabbbbbbccccccddddddeeeeeeffffffgggggghhhhhhhiiiiiiijjjjjjjjkkkkkkkkklllllllllllmmmmmmmmmmmmmmnnnnnnnnnnnnnnnnnnnnnnnnnnnnnnnnnnnnnnnnnnnnnnnnmmmmmmmmmmmmmmlllllllllllkkkkkkkkkjjjjjjjjiiiiiiihhhhhhhggggggffffffeeeeeeddddddccccccbbbbbbaaaaa--..-
(PID.TID 0000.0001) //     43 -..--aaaaaabbbbbccccccddddddeeeeeefffffffgggggghhhhhhhiiiiiiiijjjjjjjjkkkkkkkkkllllllllllllmmmmmmmmmmmmmmmmmnnnnnnnnnnnnnnnnnnnnnnnnnnnnnnnnnnnnmmmmmmmmmmmmmmmmmllllllllllllkkkkkkkkkjjjjjjjjiiiiiiiihhhhhhhggggggfffffffeeeeeeddddddccccccbbbbbaaaaaa--..-
(PID.TID 0000.0001) //     42 -..--aaaaaabbbbbbccccccddddddeeeeeefffffffgggggghhhhhhhhiiiiiiijjjjjjjjjkkkkkkkkkklllllllllllllmmmmmmmmmmmmmmmmmmmmmmmmmnnnnnnnnnnnnmmmmmmmmmmmmmmmmmmmmmmmmmlllllllllllllkkkkkkkkkkjjjjjjjjjiiiiiiihhhhhhhhggggggfffffffeeeeeeddddddccccccbbbbbbaaaaaa--..-
(PID.TID 0000.0001) //     41 -..--aaaaaabbbbbbccccccddddddeeeeeeefffffffggggggghhhhhhhiiiiiiiijjjjjjjjjkkkkkkkkkkkllllllllllllllmmmmmmmmmmmmmmmmmmmmmmmmmmmmmmmmmmmmmmmmmmmmmmmmmmmmmmllllllllllllllkkkkkkkkkkkjjjjjjjjjiiiiiiiihhhhhhhgggggggfffffffeeeeeeeddddddccccccbbbbbbaaaaaa--..-
(PID.TID 0000.0001) //     40 -..--aaaaaabbbbbbcccccccddddddeeeeeeefffffffggggggghhhhhhhhiiiiiiiijjjjjjjjjjkkkkkkkkkkklllllllllllllllllmmmmmmmmmmmmmmmmmmmmmmmmmmmmmmmmmmmmmmmmmmlllllllllllllllllkkkkkkkkkkkjjjjjjjjjjiiiiiiiihhhhhhhhgggggggfffffffeeeeeeeddddddcccccccbbbbbbaaaaaa--..-
(PID.TID 0000.0001) //     39 -..--aaaaaabbbbbbbccccccdddddddeeeeeeefffffffggggggghhhhhhhhiiiiiiiiijjjjjjjjjjkkkkkkkkkkkkkllllllllllllllllllllllmmmmmmmmmmmmmmmmmmmmmmmmllllllllllllllllllllllkkkkkkkkkkkkkjjjjjjjjjjiiiiiiiiihhhhhhhhgggggggfffffffeeeeeeedddddddccccccbbbbbbbaaaaaa--..-
(PID.TID 0000.0001) //     38 -..--aaaaaaabbbbbbcccccccddddddeeeeeeeffffffffgggggggghhhhhhhhiiiiiiiiijjjjjjjjjjjkkkkkkkkkkkkkkkllllllllllllllllllllllllllllllllllllllllllllllllllllllllllkkkkkkkkkkkkkkkjjjjjjjjjjjiiiiiiiiihhhhhhhhggggggggffffffffeeeeeeeddddddcccccccbbbbbbaaaaaaa--..-
(PID.TID 0000.0001) //     37 -..--aaaaaaabbbbbbbccccccdddddddeeeeeeeffffffffgggggggghhhhhhhhhiiiiiiiiiijjjjjjjjjjjjkkkkkkkkkkkkkkkkllllllllllllllllllllllllllllllllllllllllllllllllkkkkkkkkkkkkkkkkjjjjjjjjjjjjiiiiiiiiiihhhhhhhhhggggggggffffffffeeeeeeedddddddccccccbbbbbbbaaaaaaa--..-
(PID.TID 0000.0001) //     36 -..--aaaaaaabbbbbbbcccccccdddddddeeeeeeeefffffffggggggggghhhhhhhhhiiiiiiiiiiijjjjjjjjjjjjjkkkkkkkkkkkkkkkkkkkkllllllllllllllllllllllllllllllllkkkkkkkkkkkkkkkkkkkkjjjjjjjjjjjjjiiiiiiiiiiihhhhhhhhhgggggggggfffffffeeeeeeeedddddddcccccccbbbbbbbaaaaaaa--..-
(PID.TID 0000.0001) //     35 -..---aaaaaabbbbbbbccccccccdddddddeeeeeeeeffffffffggggggggghhhhhhhhhiiiiiiiiiiiijjjjjjjjjjjjjjkkkkkkkkkkkkkkkkkkkkkkkkkkkkkkkkkkkkkkkkkkkkkkkkkkkkkkkkkkkkkkkkjjjjjjjjjjjjjjiiiiiiiiiiiihhhhhhhhhgggggggggffffffffeeeeeeeedddddddccccccccbbbbbbbaaaaaa---..-
(PID.TID 0000.0001) //     34 -..---aaaaaaabbbbbbbcccccccddddddddeeeeeeeeffffffffgggggggggghhhhhhhhhhiiiiiiiiiiiijjjjjjjjjjjjjjjjjkkkkkkkkkkkkkkkkkkkkkkkkkkkkkkkkkkkkkkkkkkkkkkkkkkkkjjjjjjjjjjjjjjjjjiiiiiiiiiiiihhhhhhhhhhggggggggggffffffffeeeeeeeeddddddddcccccccbbbbbbbaaaaaaa---..-
(PID.TID 0000.0001) //     33 -..---aaaaaaabbbbbbbccccccccddddddddeeeeeeeefffffffffgggggggggghhhhhhhhhhhiiiiiiiiiiiiijjjjjjjjjjjjjjjjjjjjkkkkkkkkkkkkkkkkkkkkkkkkkkkkkkkkkkkkkkjjjjjjjjjjjjjjjjjjjjiiiiiiiiiiiiihhhhhhhhhhhggggggggggfffffffffeeeeeeeeddddddddccccccccbbbbbbbaaaaaaa---..-
(PID.TID 0000.0001) //     32 -..---aaaaaaabbbbbbbbccccccccddddddddeeeeeeeeefffffffffgggggggggghhhhhhhhhhhhiiiiiiiiiiiiiiijjjjjjjjjjjjjjjjjjjjjjjjjjjjjjjjjjjjjjjjjjjjjjjjjjjjjjjjjjjjjjjjjjjjiiiiiiiiiiiiiiihhhhhhhhhhhhggggggggggfffffffffeeeeeeeeeddddddddccccccccbbbbbbbbaaaaaaa---..-
(PID.TID 0000.0001) //     31 -..---aaaaaaaabbbbbbbbccccccccddddddddeeeeeeeeeffffffffffggggggggggghhhhhhhhhhhhiiiiiiiiiiiiiiiiijjjjjjjjjjjjjjjjjjjjjjjjjjjjjjjjjjjjjjjjjjjjjjjjjjjjjjjjjjiiiiiiiiiiiiiiiiihhhhhhhhhhhhgggggggggggffffffffffeeeeeeeeeddddddddccccccccbbbbbbbbaaaaaaaa---..-
(PID.TID 0000.0001) //     30 -..---aaaaaaaabbbbbbbbcccccccccddddddddeeeeeeeeeeffffffffffggggggggggghhhhhhhhhhhhhhiiiiiiiiiiiiiiiiiiiiijjjjjjjjjjjjjjjjjjjjjjjjjjjjjjjjjjjjjjjjjjiiiiiiiiiiiiiiiiiiiiihhhhhhhhhhhhhhgggggggggggffffffffffeeeeeeeeeeddddddddcccccccccbbbbbbbbaaaaaaaa---..-
(PID.TID 0000.0001) //     29 -..---aaaaaaaaabbbbbbbbcccccccccdddddddddeeeeeeeeeeffffffffffggggggggggggghhhhhhhhhhhhhhhiiiiiiiiiiiiiiiiiiiiiiiiiiiiiiijjjjjjjjjjjjiiiiiiiiiiiiiiiiiiiiiiiiiiiiiiihhhhhhhhhhhhhhhgggggggggggggffffffffffeeeeeeeeeedddddddddcccccccccbbbbbbbbaaaaaaaaa---..-
(PID.TID 0000.0001) //     28 -..---aaaaaaaaabbbbbbbbbcccccccccdddddddddeeeeeeeeeeefffffffffffggggggggggggghhhhhhhhhhhhhhhhhhiiiiiiiiiiiiiiiiiiiiiiiiiiiiiiiiiiiiiiiiiiiiiiiiiiiiiiiiiiiiiihhhhhhhhhhhhhhhhhhgggggggggggggfffffffffffeeeeeeeeeeedddddddddcccccccccbbbbbbbbbaaaaaaaaa---..-
(PID.TID 0000.0001) //     27 -..----aaaaaaaabbbbbbbbbbcccccccccddddddddddeeeeeeeeeeeffffffffffffgggggggggggggghhhhhhhhhhhhhhhhhhhhhhiiiiiiiiiiiiiiiiiiiiiiiiiiiiiiiiiiiiiiiiiiiiiihhhhhhhhhhhhhhhhhhhhhhggggggggggggggffffffffffffeeeeeeeeeeeddddddddddcccccccccbbbbbbbbbbaaaaaaaa----..-
[...]
(PID.TID 0000.0001) %MON pe_b_mean                    =   1.6327318066100E-05
(PID.TID 0000.0001) %MON ke_max                       =   1.4611962570881E-02
(PID.TID 0000.0001) %MON ke_mean                      =   2.6746710636761E-03
(PID.TID 0000.0001) %MON ke_vol                       =   7.2529629296391E+15
(PID.TID 0000.0001) %MON vort_r_min                   =  -4.4955566058352E-06
(PID.TID 0000.0001) %MON vort_r_max                   =   3.5453381652858E-06
(PID.TID 0000.0001) %MON vort_a_mean                  =   1.0615000000000E-04
(PID.TID 0000.0001) %MON vort_a_sd                    =   3.6493498321128E-06
(PID.TID 0000.0001) %MON vort_p_mean                  =   1.1210870169429E-04
(PID.TID 0000.0001) %MON vort_p_sd                    =   2.1073348580851E-05
(PID.TID 0000.0001) %MON surfExpan_theta_mean         =   3.1749990422185E-19
(PID.TID 0000.0001) %MON surfExpan_salt_mean          =   4.7624903444375E-19
(PID.TID 0000.0001) // =======================================================
(PID.TID 0000.0001) // End MONITOR dynamic field statistics
(PID.TID 0000.0001) // =======================================================
 cg2d: Sum(rhs),rhsMax =   6.16098836447117E-03  1.37274884791786E-02
 cg2d: Sum(rhs),rhsMax =   6.16177294764656E-03  1.37275609428407E-02
 cg2d: Sum(rhs),rhsMax =   6.16255512549496E-03  1.37276333347017E-02
 cg2d: Sum(rhs),rhsMax =   6.16333486660855E-03  1.37277056569576E-02
 cg2d: Sum(rhs),rhsMax =   6.16411213187939E-03  1.37277779075585E-02
 cg2d: Sum(rhs),rhsMax =   6.16488702425600E-03  1.37278500885104E-02
 cg2d: Sum(rhs),rhsMax =   6.16565936244623E-03  1.37279221976767E-02
 cg2d: Sum(rhs),rhsMax =   6.16642931050605E-03  1.37279942374640E-02
 cg2d: Sum(rhs),rhsMax =   6.16719674649693E-03  1.37280662056758E-02
 cg2d: Sum(rhs),rhsMax =   6.16796175787615E-03  1.37281381048865E-02
 cg2d: Sum(rhs),rhsMax =   6.16872395209230E-03  1.37282099334643E-02
 cg2d: Sum(rhs),rhsMax =   6.16948401845260E-03  1.37282816913742E-02
 cg2d: Sum(rhs),rhsMax =   6.17024160377566E-03  1.37283533788390E-02
 cg2d: Sum(rhs),rhsMax =   6.17099667587558E-03  1.37284249978308E-02
 cg2d: Sum(rhs),rhsMax =   6.17174938874243E-03  1.37284965448196E-02
 cg2d: Sum(rhs),rhsMax =   6.17249959726150E-03  1.37285680232716E-02
 cg2d: Sum(rhs),rhsMax =   6.17324739232321E-03  1.37286394304983E-02
 cg2d: Sum(rhs),rhsMax =   6.17399245585822E-03  1.37287107690507E-02
 cg2d: Sum(rhs),rhsMax =   6.17473528560281E-03  1.37287820370607E-02
 cg2d: Sum(rhs),rhsMax =   6.17547553830320E-03  1.37288532367061E-02
 cg2d: Sum(rhs),rhsMax =   6.17621339192651E-03  1.37289243655618E-02
 cg2d: Sum(rhs),rhsMax =   6.17694879719269E-03  1.37289954259391E-02
 cg2d: Sum(rhs),rhsMax =   6.17768170750932E-03  1.37290664159001E-02
 cg2d: Sum(rhs),rhsMax =   6.17841225079780E-03  1.37291373380149E-02
 cg2d: Sum(rhs),rhsMax =   6.17913994074294E-03  1.37292081890029E-02
 cg2d: Sum(rhs),rhsMax =   6.17986545350373E-03  1.37292789720721E-02
 cg2d: Sum(rhs),rhsMax =   6.18058846173561E-03  1.37293496856439E-02
 cg2d: Sum(rhs),rhsMax =   6.18130905136350E-03  1.37294203310305E-02
 cg2d: Sum(rhs),rhsMax =   6.18202718214016E-03  1.37294909064083E-02
 cg2d: Sum(rhs),rhsMax =   6.18274285537805E-03  1.37295614137881E-02
 cg2d: Sum(rhs),rhsMax =   6.18345607959838E-03  1.37296318515367E-02
 cg2d: Sum(rhs),rhsMax =   6.18416663949717E-03  1.37297022218276E-02
 cg2d: Sum(rhs),rhsMax =   6.18487495901635E-03  1.37297725214661E-02
 cg2d: Sum(rhs),rhsMax =   6.18558076220739E-03  1.37298427536293E-02
 cg2d: Sum(rhs),rhsMax =   6.18628415626833E-03  1.37299129171546E-02
 cg2d: Sum(rhs),rhsMax =   6.18698509057432E-03  1.37299830128704E-02
 cg2d: Sum(rhs),rhsMax =   6.18768353981757E-03  1.37300530395662E-02
 cg2d: Sum(rhs),rhsMax =   6.18837950474947E-03  1.37301229986752E-02
 cg2d: Sum(rhs),rhsMax =   6.18907294107853E-03  1.37301928892416E-02
 cg2d: Sum(rhs),rhsMax =   6.18976403792069E-03  1.37302627122607E-02
 cg2d: Sum(rhs),rhsMax =   6.19045247145724E-03  1.37303324662775E-02
 cg2d: Sum(rhs),rhsMax =   6.19113870149923E-03  1.37304021533087E-02
 cg2d: Sum(rhs),rhsMax =   6.19182240831634E-03  1.37304717716385E-02
 cg2d: Sum(rhs),rhsMax =   6.19250374251188E-03  1.37305413230627E-02
 cg2d: Sum(rhs),rhsMax =   6.19318263711058E-03  1.37306108060051E-02
 cg2d: Sum(rhs),rhsMax =   6.19385892157245E-03  1.37306802219452E-02
 cg2d: Sum(rhs),rhsMax =   6.19453298046923E-03  1.37307495692739E-02
 cg2d: Sum(rhs),rhsMax =   6.19520453291784E-03  1.37308188504884E-02
 cg2d: Sum(rhs),rhsMax =   6.19587368277531E-03  1.37308880632765E-02
 cg2d: Sum(rhs),rhsMax =   6.19654046542120E-03  1.37309572095754E-02
 cg2d: Sum(rhs),rhsMax =   6.19720476610498E-03  1.37310262880019E-02
 cg2d: Sum(rhs),rhsMax =   6.19786658463357E-03  1.37310952999284E-02
 cg2d: Sum(rhs),rhsMax =   6.19852601588859E-03  1.37311642441533E-02
 cg2d: Sum(rhs),rhsMax =   6.19918302466198E-03  1.37312331226955E-02
 cg2d: Sum(rhs),rhsMax =   6.19983770730724E-03  1.37313019328535E-02
 cg2d: Sum(rhs),rhsMax =   6.20048995027467E-03  1.37313706772351E-02
 cg2d: Sum(rhs),rhsMax =   6.20113980044136E-03  1.37314393541224E-02
 cg2d: Sum(rhs),rhsMax =   6.20178717912236E-03  1.37315079651482E-02
 cg2d: Sum(rhs),rhsMax =   6.20243222383720E-03  1.37315765085700E-02
 cg2d: Sum(rhs),rhsMax =   6.20307487753230E-03  1.37316449866914E-02
 cg2d: Sum(rhs),rhsMax =   6.20371516343630E-03  1.37317133975612E-02
 cg2d: Sum(rhs),rhsMax =   6.20435304030877E-03  1.37317817430208E-02
 cg2d: Sum(rhs),rhsMax =   6.20498856406002E-03  1.37318500208298E-02
 cg2d: Sum(rhs),rhsMax =   6.20562170991552E-03  1.37319182333237E-02
 cg2d: Sum(rhs),rhsMax =   6.20625250940899E-03  1.37319863795263E-02
 cg2d: Sum(rhs),rhsMax =   6.20688088438676E-03  1.37320544604469E-02
 cg2d: Sum(rhs),rhsMax =   6.20750693056905E-03  1.37321224741850E-02
 cg2d: Sum(rhs),rhsMax =   6.20813058901250E-03  1.37321904229463E-02
 cg2d: Sum(rhs),rhsMax =   6.20875196852611E-03  1.37322583059777E-02
 cg2d: Sum(rhs),rhsMax =   6.20937099015999E-03  1.37323261239559E-02
 cg2d: Sum(rhs),rhsMax =   6.21002295517047E-03  1.37323938780381E-02
 cg2d: Sum(rhs),rhsMax =   6.21067242058323E-03  1.37324615643516E-02
(PID.TID 0000.0001)      cg2d_init_res =   1.07277494653443E-03
(PID.TID 0000.0001)      cg2d_iters(min,last) =      -1     337
(PID.TID 0000.0001)      cg2d_last_res =   9.96979078632332E-08
(PID.TID 0000.0001) // =======================================================
(PID.TID 0000.0001) // Begin MONITOR dynamic field statistics
(PID.TID 0000.0001) // =======================================================
(PID.TID 0000.0001) %MON time_tsnumber                =                 21600
(PID.TID 0000.0001) %MON time_secondsf                =   2.5920000000000E+07
(PID.TID 0000.0001) %MON dynstat_eta_max              =   1.4059700177972E-01
(PID.TID 0000.0001) %MON dynstat_eta_min              =  -3.6958794133563E-01
(PID.TID 0000.0001) %MON dynstat_eta_mean             =  -4.0591075683565E-07
(PID.TID 0000.0001) %MON dynstat_eta_sd               =   1.2644404519160E-01
(PID.TID 0000.0001) %MON dynstat_eta_del2             =   7.5851043971380E-07
(PID.TID 0000.0001) %MON dynstat_uvel_max             =   1.3808054862173E-01
(PID.TID 0000.0001) %MON dynstat_uvel_min             =  -1.3534457325480E-01
(PID.TID 0000.0001) %MON dynstat_uvel_mean            =  -2.6414766306180E-08
(PID.TID 0000.0001) %MON dynstat_uvel_sd              =   5.2798679693372E-02
(PID.TID 0000.0001) %MON dynstat_uvel_del2            =   1.1244112999879E-06
(PID.TID 0000.0001) %MON dynstat_vvel_max             =   1.7123219552915E-01
(PID.TID 0000.0001) %MON dynstat_vvel_min             =  -1.2865466210373E-01
(PID.TID 0000.0001) %MON dynstat_vvel_mean            =  -2.3016991104320E-08
(PID.TID 0000.0001) %MON dynstat_vvel_sd              =   5.0951651890315E-02
(PID.TID 0000.0001) %MON dynstat_vvel_del2            =   1.3059045195791E-06
(PID.TID 0000.0001) %MON dynstat_wvel_max             =   4.0515801263973E-09
(PID.TID 0000.0001) %MON dynstat_wvel_min             =  -6.5396812930703E-09
(PID.TID 0000.0001) %MON dynstat_wvel_mean            =  -5.0389774247434E-21
(PID.TID 0000.0001) %MON dynstat_wvel_sd              =   1.7259755391918E-09
(PID.TID 0000.0001) %MON dynstat_wvel_del2            =   2.0774273696126E-14
(PID.TID 0000.0001) %MON dynstat_theta_max            =   2.0000000000000E+01
(PID.TID 0000.0001) %MON dynstat_theta_min            =   2.0000000000000E+01
(PID.TID 0000.0001) %MON dynstat_theta_mean           =   1.9999999999999E+01
(PID.TID 0000.0001) %MON dynstat_theta_sd             =   1.1972645097557E-12
(PID.TID 0000.0001) %MON dynstat_theta_del2           =   0.0000000000000E+00
(PID.TID 0000.0001) %MON dynstat_salt_max             =   3.0000000000000E+01
(PID.TID 0000.0001) %MON dynstat_salt_min             =   3.0000000000000E+01
(PID.TID 0000.0001) %MON dynstat_salt_mean            =   2.9999999999998E+01
(PID.TID 0000.0001) %MON dynstat_salt_sd              =   2.1529444893531E-12
(PID.TID 0000.0001) %MON dynstat_salt_del2            =   0.0000000000000E+00
(PID.TID 0000.0001) %MON trAdv_CFL_u_max              =   3.3139043043793E-02
(PID.TID 0000.0001) %MON trAdv_CFL_v_max              =   4.1094870105689E-02
(PID.TID 0000.0001) %MON trAdv_CFL_w_max              =   1.0322505203692E-09
(PID.TID 0000.0001) %MON advcfl_uvel_max              =   3.3139331669214E-02
(PID.TID 0000.0001) %MON advcfl_vvel_max              =   4.1095726926995E-02
(PID.TID 0000.0001) %MON advcfl_wvel_max              =   3.1390470206738E-09
(PID.TID 0000.0001) %MON advcfl_W_hf_max              =   0.0000000000000E+00
(PID.TID 0000.0001) %MON pe_b_mean                    =   1.6358012641307E-05
(PID.TID 0000.0001) %MON ke_max                       =   1.4655673414493E-02
(PID.TID 0000.0001) %MON ke_mean                      =   2.6797685018524E-03
(PID.TID 0000.0001) %MON ke_vol                       =   7.2529629296391E+15
(PID.TID 0000.0001) %MON vort_r_min                   =  -4.4972505885615E-06
(PID.TID 0000.0001) %MON vort_r_max                   =   3.5491474393925E-06
(PID.TID 0000.0001) %MON vort_a_mean                  =   1.0615000000000E-04
(PID.TID 0000.0001) %MON vort_a_sd                    =   3.6494666890005E-06
(PID.TID 0000.0001) %MON vort_p_mean                  =   1.1210870169429E-04
(PID.TID 0000.0001) %MON vort_p_sd                    =   2.1073408936095E-05
(PID.TID 0000.0001) %MON surfExpan_theta_mean         =  -1.0081632516202E-19
(PID.TID 0000.0001) %MON surfExpan_salt_mean          =  -1.5122061779500E-19
(PID.TID 0000.0001) // =======================================================
(PID.TID 0000.0001) // End MONITOR dynamic field statistics
(PID.TID 0000.0001) // =======================================================
(PID.TID 0000.0001) %CHECKPOINT     21600 ckptA
(PID.TID 0000.0001)   Seconds in section "ALL                    [THE_MODEL_MAIN]":
(PID.TID 0000.0001)           User time:   11679.4762633126
(PID.TID 0000.0001)         System time:  0.000000000000000E+000
(PID.TID 0000.0001)     Wall clock time:   11777.4501698017
(PID.TID 0000.0001)          No. starts:           1
(PID.TID 0000.0001)           No. stops:           1
(PID.TID 0000.0001)   Seconds in section "INITIALISE_FIXED       [THE_MODEL_MAIN]":
(PID.TID 0000.0001)           User time:  8.456099964678288E-002
(PID.TID 0000.0001)         System time:  0.000000000000000E+000
(PID.TID 0000.0001)     Wall clock time:  0.344207048416138
(PID.TID 0000.0001)          No. starts:           1
(PID.TID 0000.0001)           No. stops:           1
(PID.TID 0000.0001)   Seconds in section "THE_MAIN_LOOP          [THE_MODEL_MAIN]":
(PID.TID 0000.0001)           User time:   11679.3916653097
(PID.TID 0000.0001)         System time:  0.000000000000000E+000
(PID.TID 0000.0001)     Wall clock time:   11777.1059019566
(PID.TID 0000.0001)          No. starts:           1
(PID.TID 0000.0001)           No. stops:           1
(PID.TID 0000.0001)   Seconds in section "INITIALISE_VARIA    [THE_MAIN_LOOP]":
(PID.TID 0000.0001)           User time:  3.092800080776215E-002
(PID.TID 0000.0001)         System time:  0.000000000000000E+000
(PID.TID 0000.0001)     Wall clock time:  0.103487014770508
(PID.TID 0000.0001)          No. starts:           1
(PID.TID 0000.0001)           No. stops:           1
(PID.TID 0000.0001)   Seconds in section "MAIN LOOP           [THE_MAIN_LOOP]":
(PID.TID 0000.0001)           User time:   11679.3607043177
(PID.TID 0000.0001)         System time:  0.000000000000000E+000
(PID.TID 0000.0001)     Wall clock time:   11777.0023431778
(PID.TID 0000.0001)          No. starts:           1
(PID.TID 0000.0001)           No. stops:           1
(PID.TID 0000.0001)   Seconds in section "MAIN_DO_LOOP        [THE_MAIN_LOOP]":
(PID.TID 0000.0001)           User time:   11679.1500390619
(PID.TID 0000.0001)         System time:  0.000000000000000E+000
(PID.TID 0000.0001)     Wall clock time:   11776.7874100208
(PID.TID 0000.0001)          No. starts:       21600
(PID.TID 0000.0001)           No. stops:       21600
(PID.TID 0000.0001)   Seconds in section "FORWARD_STEP        [MAIN_DO_LOOP]":
(PID.TID 0000.0001)           User time:   11678.7402869761
(PID.TID 0000.0001)         System time:  0.000000000000000E+000
(PID.TID 0000.0001)     Wall clock time:   11776.3407828808
(PID.TID 0000.0001)          No. starts:       21600
(PID.TID 0000.0001)           No. stops:       21600
(PID.TID 0000.0001)   Seconds in section "LOAD_FIELDS_DRIVER  [FORWARD_STEP]":
(PID.TID 0000.0001)           User time:  0.628623560070992
(PID.TID 0000.0001)         System time:  0.000000000000000E+000
(PID.TID 0000.0001)     Wall clock time:  0.971186637878418
(PID.TID 0000.0001)          No. starts:       21600
(PID.TID 0000.0001)           No. stops:       21600
(PID.TID 0000.0001)   Seconds in section "EXTERNAL_FLDS_LOAD [LOAD_FLDS_DRIVER]":
(PID.TID 0000.0001)           User time:  0.211168453097343
(PID.TID 0000.0001)         System time:  0.000000000000000E+000
(PID.TID 0000.0001)     Wall clock time:  0.222801685333252
(PID.TID 0000.0001)          No. starts:       21600
(PID.TID 0000.0001)           No. stops:       21600
(PID.TID 0000.0001)   Seconds in section "DO_ATMOSPHERIC_PHYS [FORWARD_STEP]":
(PID.TID 0000.0001)           User time:  0.226237729191780
(PID.TID 0000.0001)         System time:  0.000000000000000E+000
(PID.TID 0000.0001)     Wall clock time:  0.220342874526978
(PID.TID 0000.0001)          No. starts:       21600
(PID.TID 0000.0001)           No. stops:       21600
(PID.TID 0000.0001)   Seconds in section "DO_OCEANIC_PHYS     [FORWARD_STEP]":
(PID.TID 0000.0001)           User time:   45.4113867282867
(PID.TID 0000.0001)         System time:  0.000000000000000E+000
(PID.TID 0000.0001)     Wall clock time:   46.1959455013275
(PID.TID 0000.0001)          No. starts:       21600
(PID.TID 0000.0001)           No. stops:       21600
(PID.TID 0000.0001)   Seconds in section "THERMODYNAMICS      [FORWARD_STEP]":
(PID.TID 0000.0001)           User time:   21.5865096449852
(PID.TID 0000.0001)         System time:  0.000000000000000E+000
(PID.TID 0000.0001)     Wall clock time:   21.9211597442627
(PID.TID 0000.0001)          No. starts:       21600
(PID.TID 0000.0001)           No. stops:       21600
(PID.TID 0000.0001)   Seconds in section "DYNAMICS            [FORWARD_STEP]":
(PID.TID 0000.0001)           User time:   579.083037734032
(PID.TID 0000.0001)         System time:  0.000000000000000E+000
(PID.TID 0000.0001)     Wall clock time:   582.222950458527
(PID.TID 0000.0001)          No. starts:       21600
(PID.TID 0000.0001)           No. stops:       21600
(PID.TID 0000.0001)   Seconds in section "SOLVE_FOR_PRESSURE  [FORWARD_STEP]":
(PID.TID 0000.0001)           User time:   10953.9704638422
(PID.TID 0000.0001)         System time:  0.000000000000000E+000
(PID.TID 0000.0001)     Wall clock time:   10987.4906511307
(PID.TID 0000.0001)          No. starts:       21600
(PID.TID 0000.0001)           No. stops:       21600
(PID.TID 0000.0001)   Seconds in section "MOM_CORRECTION_STEP [FORWARD_STEP]":
(PID.TID 0000.0001)           User time:   41.6936339139938
(PID.TID 0000.0001)         System time:  0.000000000000000E+000
(PID.TID 0000.0001)     Wall clock time:   42.1676435470581
(PID.TID 0000.0001)          No. starts:       21600
(PID.TID 0000.0001)           No. stops:       21600
(PID.TID 0000.0001)   Seconds in section "INTEGR_CONTINUITY   [FORWARD_STEP]":
(PID.TID 0000.0001)           User time:   24.1092350482941
(PID.TID 0000.0001)         System time:  0.000000000000000E+000
(PID.TID 0000.0001)     Wall clock time:   24.4276688098907
(PID.TID 0000.0001)          No. starts:       21600
(PID.TID 0000.0001)           No. stops:       21600
(PID.TID 0000.0001)   Seconds in section "TRC_CORRECTION_STEP [FORWARD_STEP]":
(PID.TID 0000.0001)           User time:  0.215616464614868
(PID.TID 0000.0001)         System time:  0.000000000000000E+000
(PID.TID 0000.0001)     Wall clock time:  0.225404024124146
(PID.TID 0000.0001)          No. starts:       21600
(PID.TID 0000.0001)           No. stops:       21600
(PID.TID 0000.0001)   Seconds in section "BLOCKING_EXCHANGES  [FORWARD_STEP]":
(PID.TID 0000.0001)           User time:   2.58068633079529
(PID.TID 0000.0001)         System time:  0.000000000000000E+000
(PID.TID 0000.0001)     Wall clock time:   2.61623597145081
(PID.TID 0000.0001)          No. starts:       21600
(PID.TID 0000.0001)           No. stops:       21600
(PID.TID 0000.0001)   Seconds in section "MONITOR             [FORWARD_STEP]":
(PID.TID 0000.0001)           User time:   3.43854236602783
(PID.TID 0000.0001)         System time:  0.000000000000000E+000
(PID.TID 0000.0001)     Wall clock time:   3.85479545593262
(PID.TID 0000.0001)          No. starts:       21600
(PID.TID 0000.0001)           No. stops:       21600
(PID.TID 0000.0001)   Seconds in section "DO_THE_MODEL_IO     [FORWARD_STEP]":
(PID.TID 0000.0001)           User time:   1.97077757120132
(PID.TID 0000.0001)         System time:  0.000000000000000E+000
(PID.TID 0000.0001)     Wall clock time:   60.4844799041748
(PID.TID 0000.0001)          No. starts:       21600
(PID.TID 0000.0001)           No. stops:       21600
(PID.TID 0000.0001)   Seconds in section "DO_WRITE_PICKUP     [FORWARD_STEP]":
(PID.TID 0000.0001)           User time:  0.250079691410065
(PID.TID 0000.0001)         System time:  0.000000000000000E+000
(PID.TID 0000.0001)     Wall clock time:  0.339105844497681
(PID.TID 0000.0001)          No. starts:       21600
(PID.TID 0000.0001)           No. stops:       21600
(PID.TID 0000.0001) // ======================================================
(PID.TID 0000.0001) // Tile <-> Tile communication statistics
(PID.TID 0000.0001) // ======================================================
(PID.TID 0000.0001) // o Tile number: 000001
(PID.TID 0000.0001) //         No. X exchanges =              0
(PID.TID 0000.0001) //            Max. X spins =              0
(PID.TID 0000.0001) //            Min. X spins =     1000000000
(PID.TID 0000.0001) //          Total. X spins =              0
(PID.TID 0000.0001) //            Avg. X spins =       0.00E+00
(PID.TID 0000.0001) //         No. Y exchanges =              0
(PID.TID 0000.0001) //            Max. Y spins =              0
(PID.TID 0000.0001) //            Min. Y spins =     1000000000
(PID.TID 0000.0001) //          Total. Y spins =              0
(PID.TID 0000.0001) //            Avg. Y spins =       0.00E+00
(PID.TID 0000.0001) // o Thread number: 000001
(PID.TID 0000.0001) //            No. barriers =       47972018
(PID.TID 0000.0001) //      Max. barrier spins =              1
(PID.TID 0000.0001) //      Min. barrier spins =              1
(PID.TID 0000.0001) //     Total barrier spins =       47972018
(PID.TID 0000.0001) //      Avg. barrier spins =       1.00E+00
PROGRAM MAIN: Execution ended Normally
