(PID.TID 0000.0001) 
(PID.TID 0000.0001) // ======================================================
(PID.TID 0000.0001) //                      MITgcm UV
(PID.TID 0000.0001) //                      =========
(PID.TID 0000.0001) // ======================================================
(PID.TID 0000.0001) // execution environment starting up...
(PID.TID 0000.0001) 
(PID.TID 0000.0001) // MITgcmUV version:  checkpoint67v
(PID.TID 0000.0001) // Build user:        eavesr
(PID.TID 0000.0001) // Build host:        atmlxint3
(PID.TID 0000.0001) // Build date:        Thu 25 Feb 14:18:02 GMT 2021
(PID.TID 0000.0001) 
(PID.TID 0000.0001) // =======================================================
(PID.TID 0000.0001) // Execution Environment parameter file "eedata"
(PID.TID 0000.0001) // =======================================================
(PID.TID 0000.0001) ># Example "eedata" file
(PID.TID 0000.0001) ># Lines beginning "#" are comments
(PID.TID 0000.0001) >#  nTx      :: No. threads per process in X
(PID.TID 0000.0001) >#  nTy      :: No. threads per process in Y
(PID.TID 0000.0001) ># debugMode :: print debug msg (sequence of S/R calls)
(PID.TID 0000.0001) > &EEPARMS
(PID.TID 0000.0001) > nTx=1,
(PID.TID 0000.0001) > nTy=1,
(PID.TID 0000.0001) > &
(PID.TID 0000.0001) ># Note: Some systems use & as the namelist terminator (as shown here).
(PID.TID 0000.0001) >#       Other systems use a / character.
(PID.TID 0000.0001) 
(PID.TID 0000.0001) // =======================================================
(PID.TID 0000.0001) // Computational Grid Specification ( see files "SIZE.h" )
(PID.TID 0000.0001) //                                  ( and "eedata"       )
(PID.TID 0000.0001) // =======================================================
(PID.TID 0000.0001)      nPx =    1 ; /* No. processes in X */
(PID.TID 0000.0001)      nPy =    1 ; /* No. processes in Y */
(PID.TID 0000.0001)      nSx =    1 ; /* No. tiles in X per process */
(PID.TID 0000.0001)      nSy =    1 ; /* No. tiles in Y per process */
(PID.TID 0000.0001)      sNx =  248 ; /* Tile size in X */
(PID.TID 0000.0001)      sNy =  248 ; /* Tile size in Y */
(PID.TID 0000.0001)      OLx =    2 ; /* Tile overlap distance in X */
(PID.TID 0000.0001)      OLy =    2 ; /* Tile overlap distance in Y */
(PID.TID 0000.0001)      nTx =    1 ; /* No. threads in X per process */
(PID.TID 0000.0001)      nTy =    1 ; /* No. threads in Y per process */
(PID.TID 0000.0001)       Nr =    1 ; /* No. levels in the vertical   */
(PID.TID 0000.0001)       Nx =  248 ; /* Total domain size in X ( = nPx*nSx*sNx ) */
(PID.TID 0000.0001)       Ny =  248 ; /* Total domain size in Y ( = nPy*nSy*sNy ) */
(PID.TID 0000.0001)   nTiles =    1 ; /* Total no. tiles per process ( = nSx*nSy ) */
(PID.TID 0000.0001)   nProcs =    1 ; /* Total no. processes ( = nPx*nPy ) */
(PID.TID 0000.0001) nThreads =    1 ; /* Total no. threads per process ( = nTx*nTy ) */
(PID.TID 0000.0001) usingMPI =    F ; /* Flag used to control whether MPI is in use */
(PID.TID 0000.0001)                   /*  note: To execute a program with MPI calls */
(PID.TID 0000.0001)                   /*  it must be launched appropriately e.g     */
(PID.TID 0000.0001)                   /*  "mpirun -np 64 ......"                    */
(PID.TID 0000.0001) useCoupler=   F ; /* Flag used to control communications with   */
(PID.TID 0000.0001)                   /*  other model components, through a coupler */
(PID.TID 0000.0001) useNest2W_parent =    F ;/* Control 2-W Nesting comm */
(PID.TID 0000.0001) useNest2W_child  =    F ;/* Control 2-W Nesting comm */
(PID.TID 0000.0001) debugMode =    F ; /* print debug msg. (sequence of S/R calls)  */
(PID.TID 0000.0001) printMapIncludesZeros=    F ; /* print zeros in Std.Output maps */
(PID.TID 0000.0001) maxLengthPrt1D=   65 /* maxLength of 1D array printed to StdOut */
(PID.TID 0000.0001) 
(PID.TID 0000.0001) // ======================================================
(PID.TID 0000.0001) // Mapping of tiles to threads
(PID.TID 0000.0001) // ======================================================
(PID.TID 0000.0001) // -o- Thread   1, tiles (   1:   1,   1:   1)
(PID.TID 0000.0001) 
(PID.TID 0000.0001) // ======================================================
(PID.TID 0000.0001) // Tile <-> Tile connectvity table
(PID.TID 0000.0001) // ======================================================
(PID.TID 0000.0001) // Tile number: 000001 (process no. = 000000)
(PID.TID 0000.0001) //        WEST: Tile = 000001, Process = 000000, Comm = put
(PID.TID 0000.0001) //                bi = 000001, bj = 000001
(PID.TID 0000.0001) //        EAST: Tile = 000001, Process = 000000, Comm = put
(PID.TID 0000.0001) //                bi = 000001, bj = 000001
(PID.TID 0000.0001) //       SOUTH: Tile = 000001, Process = 000000, Comm = put
(PID.TID 0000.0001) //                bi = 000001, bj = 000001
(PID.TID 0000.0001) //       NORTH: Tile = 000001, Process = 000000, Comm = put
(PID.TID 0000.0001) //                bi = 000001, bj = 000001
(PID.TID 0000.0001) 
(PID.TID 0000.0001)  INI_PARMS: opening model parameter file "data"
(PID.TID 0000.0001)  OPEN_COPY_DATA_FILE: opening file data
(PID.TID 0000.0001) // =======================================================
(PID.TID 0000.0001) // Parameter file "data"
(PID.TID 0000.0001) // =======================================================
(PID.TID 0000.0001) ># Model parameters
(PID.TID 0000.0001) ># Continuous equation parameters
(PID.TID 0000.0001) > &PARM01
(PID.TID 0000.0001) > viscAh=4.E2,
(PID.TID 0000.0001) > f0=0.7E-4,
(PID.TID 0000.0001) > beta=2.E-11,
(PID.TID 0000.0001) > rhoConst=1027.,
(PID.TID 0000.0001) > gBaro=9.81,
(PID.TID 0000.0001) > rigidLid=.FALSE.,
(PID.TID 0000.0001) > implicitFreeSurface=.TRUE.,
(PID.TID 0000.0001) ># momAdvection=.FALSE.,
(PID.TID 0000.0001) > tempStepping=.FALSE.,
(PID.TID 0000.0001) > saltStepping=.FALSE.,
(PID.TID 0000.0001) > useSingleCpuIO=.TRUE.,
(PID.TID 0000.0001) > hFacMin=0.1,
(PID.TID 0000.0001) > &
(PID.TID 0000.0001) >
(PID.TID 0000.0001) ># Elliptic solver parameters
(PID.TID 0000.0001) > &PARM02
(PID.TID 0000.0001) > cg2dTargetResidual=1.E-7,
(PID.TID 0000.0001) > cg2dMaxIters=1000,
(PID.TID 0000.0001) > &
(PID.TID 0000.0001) >
(PID.TID 0000.0001) ># Time stepping parameters
(PID.TID 0000.0001) > &PARM03
(PID.TID 0000.0001) > nIter0=0,
(PID.TID 0000.0001) > nTimeSteps=100,
(PID.TID 0000.0001) > deltaT=5400.0,
(PID.TID 0000.0001) > pChkptFreq=31104000.0,
(PID.TID 0000.0001) > chkptFreq=25920000.0,
(PID.TID 0000.0001) > dumpFreq=864000.0,
(PID.TID 0000.0001) > monitorFreq=86400.,
(PID.TID 0000.0001) > monitorSelect=2,
(PID.TID 0000.0001) >#-for longer run (3.0 yr):
(PID.TID 0000.0001) ># nTimeSteps=77760,
(PID.TID 0000.0001) ># monitorFreq=864000.,
(PID.TID 0000.0001) > &
(PID.TID 0000.0001) >
(PID.TID 0000.0001) ># Gridding parameters
(PID.TID 0000.0001) > &PARM04
(PID.TID 0000.0001) > usingCartesianGrid=.TRUE.,
(PID.TID 0000.0001) > delX=248*5.E3,
(PID.TID 0000.0001) > delY=248*5.E3,
(PID.TID 0000.0001) > xgOrigin=-5.E3,
(PID.TID 0000.0001) > ygOrigin=-5.E3,
(PID.TID 0000.0001) > delR=5000.,
(PID.TID 0000.0001) > &
(PID.TID 0000.0001) >
(PID.TID 0000.0001) ># Input datasets
(PID.TID 0000.0001) > &PARM05
(PID.TID 0000.0001) > bathyFile='bathy.bin'
(PID.TID 0000.0001) > zonalWindFile='wind.bin',
(PID.TID 0000.0001) >#zonalWindFile='windx_siny.bin',
(PID.TID 0000.0001) > meridWindFile=,
(PID.TID 0000.0001) > &
(PID.TID 0000.0001) 
(PID.TID 0000.0001)  INI_PARMS ; starts to read PARM01
(PID.TID 0000.0001)  INI_PARMS ; read PARM01 : OK
(PID.TID 0000.0001)  INI_PARMS ; starts to read PARM02
(PID.TID 0000.0001)  INI_PARMS ; read PARM02 : OK
(PID.TID 0000.0001)  INI_PARMS ; starts to read PARM03
(PID.TID 0000.0001)  INI_PARMS ; read PARM03 : OK
(PID.TID 0000.0001)  INI_PARMS ; starts to read PARM04
(PID.TID 0000.0001)  INI_PARMS ; read PARM04 : OK
(PID.TID 0000.0001)  INI_PARMS ; starts to read PARM05
(PID.TID 0000.0001)  INI_PARMS ; read PARM05 : OK
(PID.TID 0000.0001)  INI_PARMS: finished reading file "data"
(PID.TID 0000.0001)  PACKAGES_BOOT: opening data.pkg
(PID.TID 0000.0001)  OPEN_COPY_DATA_FILE: opening file data.pkg
(PID.TID 0000.0001) // =======================================================
(PID.TID 0000.0001) // Parameter file "data.pkg"
(PID.TID 0000.0001) // =======================================================
(PID.TID 0000.0001) ># Packages
(PID.TID 0000.0001) > &PACKAGES
(PID.TID 0000.0001) > &
(PID.TID 0000.0001) 
(PID.TID 0000.0001)  PACKAGES_BOOT: finished reading data.pkg
(PID.TID 0000.0001)  PACKAGES_BOOT: On/Off package Summary
 --------  pkgs with a standard "usePKG" On/Off switch in "data.pkg":  --------
 -------- pkgs without standard "usePKG" On/Off switch in "data.pkg":  --------
 pkg/generic_advdiff      compiled but not used ( useGAD                   = F )
 pkg/mom_common           compiled   and   used ( momStepping              = T )
 pkg/mom_vecinv           compiled but not used ( +vectorInvariantMomentum = F )
 pkg/mom_fluxform         compiled   and   used ( & not vectorInvariantMom = T )
 pkg/monitor              compiled   and   used ( monitorFreq > 0.         = T )
 pkg/debug                compiled but not used ( debugMode                = F )
 pkg/rw                   compiled   and   used
 pkg/mdsio                compiled   and   used
(PID.TID 0000.0001)  PACKAGES_BOOT: End of package Summary
(PID.TID 0000.0001) 
(PID.TID 0000.0001) SET_PARMS: done
(PID.TID 0000.0001) Enter INI_VERTICAL_GRID: setInterFDr=    T ; setCenterDr=    F
(PID.TID 0000.0001) %MON XC_max                       =   1.2325000000000E+06
(PID.TID 0000.0001) %MON XC_min                       =  -2.5000000000000E+03
(PID.TID 0000.0001) %MON XC_mean                      =   6.1500000000000E+05
(PID.TID 0000.0001) %MON XC_sd                        =   3.5795425685414E+05
(PID.TID 0000.0001) %MON XG_max                       =   1.2300000000000E+06
(PID.TID 0000.0001) %MON XG_min                       =  -5.0000000000000E+03
(PID.TID 0000.0001) %MON XG_mean                      =   6.1250000000000E+05
(PID.TID 0000.0001) %MON XG_sd                        =   3.5795425685414E+05
(PID.TID 0000.0001) %MON DXC_max                      =   5.0000000000000E+03
(PID.TID 0000.0001) %MON DXC_min                      =   5.0000000000000E+03
(PID.TID 0000.0001) %MON DXC_mean                     =   5.0000000000000E+03
(PID.TID 0000.0001) %MON DXC_sd                       =   9.0949470177293E-13
(PID.TID 0000.0001) %MON DXF_max                      =   5.0000000000000E+03
(PID.TID 0000.0001) %MON DXF_min                      =   5.0000000000000E+03
(PID.TID 0000.0001) %MON DXF_mean                     =   5.0000000000000E+03
(PID.TID 0000.0001) %MON DXF_sd                       =   9.0949470177293E-13
(PID.TID 0000.0001) %MON DXG_max                      =   5.0000000000000E+03
(PID.TID 0000.0001) %MON DXG_min                      =   5.0000000000000E+03
(PID.TID 0000.0001) %MON DXG_mean                     =   5.0000000000000E+03
(PID.TID 0000.0001) %MON DXG_sd                       =   9.0949470177293E-13
(PID.TID 0000.0001) %MON DXV_max                      =   5.0000000000000E+03
(PID.TID 0000.0001) %MON DXV_min                      =   5.0000000000000E+03
(PID.TID 0000.0001) %MON DXV_mean                     =   5.0000000000000E+03
(PID.TID 0000.0001) %MON DXV_sd                       =   9.0949470177293E-13
(PID.TID 0000.0001) %MON YC_max                       =   1.2325000000000E+06
(PID.TID 0000.0001) %MON YC_min                       =  -2.5000000000000E+03
(PID.TID 0000.0001) %MON YC_mean                      =   6.1500000000000E+05
(PID.TID 0000.0001) %MON YC_sd                        =   3.5795425685414E+05
(PID.TID 0000.0001) %MON YG_max                       =   1.2300000000000E+06
(PID.TID 0000.0001) %MON YG_min                       =  -5.0000000000000E+03
(PID.TID 0000.0001) %MON YG_mean                      =   6.1250000000000E+05
(PID.TID 0000.0001) %MON YG_sd                        =   3.5795425685414E+05
(PID.TID 0000.0001) %MON DYC_max                      =   5.0000000000000E+03
(PID.TID 0000.0001) %MON DYC_min                      =   5.0000000000000E+03
(PID.TID 0000.0001) %MON DYC_mean                     =   5.0000000000000E+03
(PID.TID 0000.0001) %MON DYC_sd                       =   9.0949470177293E-13
(PID.TID 0000.0001) %MON DYF_max                      =   5.0000000000000E+03
(PID.TID 0000.0001) %MON DYF_min                      =   5.0000000000000E+03
(PID.TID 0000.0001) %MON DYF_mean                     =   5.0000000000000E+03
(PID.TID 0000.0001) %MON DYF_sd                       =   9.0949470177293E-13
(PID.TID 0000.0001) %MON DYG_max                      =   5.0000000000000E+03
(PID.TID 0000.0001) %MON DYG_min                      =   5.0000000000000E+03
(PID.TID 0000.0001) %MON DYG_mean                     =   5.0000000000000E+03
(PID.TID 0000.0001) %MON DYG_sd                       =   9.0949470177293E-13
(PID.TID 0000.0001) %MON DYU_max                      =   5.0000000000000E+03
(PID.TID 0000.0001) %MON DYU_min                      =   5.0000000000000E+03
(PID.TID 0000.0001) %MON DYU_mean                     =   5.0000000000000E+03
(PID.TID 0000.0001) %MON DYU_sd                       =   9.0949470177293E-13
(PID.TID 0000.0001) %MON RA_max                       =   2.5000000000000E+07
(PID.TID 0000.0001) %MON RA_min                       =   2.5000000000000E+07
(PID.TID 0000.0001) %MON RA_mean                      =   2.5000000000000E+07
(PID.TID 0000.0001) %MON RA_sd                        =   3.7252902984619E-09
(PID.TID 0000.0001) %MON RAW_max                      =   2.5000000000000E+07
(PID.TID 0000.0001) %MON RAW_min                      =   2.5000000000000E+07
(PID.TID 0000.0001) %MON RAW_mean                     =   2.5000000000000E+07
(PID.TID 0000.0001) %MON RAW_sd                       =   3.7252902984619E-09
(PID.TID 0000.0001) %MON RAS_max                      =   2.5000000000000E+07
(PID.TID 0000.0001) %MON RAS_min                      =   2.5000000000000E+07
(PID.TID 0000.0001) %MON RAS_mean                     =   2.5000000000000E+07
(PID.TID 0000.0001) %MON RAS_sd                       =   3.7252902984619E-09
(PID.TID 0000.0001) %MON RAZ_max                      =   2.5000000000000E+07
(PID.TID 0000.0001) %MON RAZ_min                      =   2.5000000000000E+07
(PID.TID 0000.0001) %MON RAZ_mean                     =   2.5000000000000E+07
(PID.TID 0000.0001) %MON RAZ_sd                       =   3.7252902984619E-09
(PID.TID 0000.0001) %MON AngleCS_max                  =   1.0000000000000E+00
(PID.TID 0000.0001) %MON AngleCS_min                  =   1.0000000000000E+00
(PID.TID 0000.0001) %MON AngleCS_mean                 =   1.0000000000000E+00
(PID.TID 0000.0001) %MON AngleCS_sd                   =   0.0000000000000E+00
(PID.TID 0000.0001) %MON AngleSN_max                  =   0.0000000000000E+00
(PID.TID 0000.0001) %MON AngleSN_min                  =   0.0000000000000E+00
(PID.TID 0000.0001) %MON AngleSN_mean                 =   0.0000000000000E+00
(PID.TID 0000.0001) %MON AngleSN_sd                   =   0.0000000000000E+00
(PID.TID 0000.0001)  MDS_READ_FIELD: opening global file: bathy.bin
(PID.TID 0000.0001) // =======================================================
(PID.TID 0000.0001) // Field Model R_low (ini_masks_etc)
(PID.TID 0000.0001) // CMIN =         -4.999819335937500E+03
(PID.TID 0000.0001) // CMAX =         -4.500020019531250E+03
(PID.TID 0000.0001) // CINT =          1.851108579282407E+01
(PID.TID 0000.0001) // SYMBOLS (CMIN->CMAX): -abcdefghijklmnopqrstuvwxyz+
(PID.TID 0000.0001) //                  0.0: .
(PID.TID 0000.0001) // RANGE I (Lo:Hi:Step):(    -1:   250:     1)
(PID.TID 0000.0001) // RANGE J (Lo:Hi:Step):(   250:    -1:    -1)
(PID.TID 0000.0001) // RANGE K (Lo:Hi:Step):(   1:   1:   1)
(PID.TID 0000.0001) // =======================================================
(PID.TID 0000.0001) K =   1
(PID.TID 0000.0001) //                I=8       I=18      I=28      I=38      I=48      I=58      I=68      I=78      I=88      I=98      I=108     I=118     I=128     I=138     I=148     I=158     I=168     I=178     I=188     I=198     I=208     I=218     I=228     I=238     I=248
(PID.TID 0000.0001) // |--J--|101234567|901234567|901234567|901234567|901234567|901234567|901234567|901234567|901234567|901234567|901234567|901234567|901234567|901234567|901234567|901234567|901234567|901234567|901234567|901234567|901234567|901234567|901234567|901234567|901234567|90
(PID.TID 0000.0001) //    250 -..------------------------------------------------------------------------------------------------------------------aaaaaaaaaaaaaaaaaa------------------------------------------------------------------------------------------------------------------..-
(PID.TID 0000.0001) //    249 ............................................................................................................................................................................................................................................................
(PID.TID 0000.0001) //    248 ............................................................................................................................................................................................................................................................
(PID.TID 0000.0001) //    247 -..------------------------------------------------------------------------------------------------------------------aaaaaaaaaaaaaaaaaa------------------------------------------------------------------------------------------------------------------..-
(PID.TID 0000.0001) //    246 -..-------------------------------------------------aaaaaaaaaaaaaaaaaaaaaaaaaaaaaaaaaaaaaaaaaaaaaaaaaaaaaaaaaaaaaaaaaaaaaaaaaaaaaaaaaaaaaaaaaaaaaaaaaaaaaaaaaaaaaaaaaaaaaaaaaaaaaaaaaaaaaaaaaaaaaaaaaaaa-------------------------------------------------..-
(PID.TID 0000.0001) //    245 -..----------------------------------aaaaaaaaaaaaaaaaaaaaaaaaaaaaaaaaaaaaaaaaaaaaaaaaaaaaaaaaaaaaaaaaaaaaaaaaaaaaaaaaaaaaaaaaaaaaaaaaaaaaaaaaaaaaaaaaaaaaaaaaaaaaaaaaaaaaaaaaaaaaaaaaaaaaaaaaaaaaaaaaaaaaaaaaaaaaaaaaaa----------------------------------..-
(PID.TID 0000.0001) //    244 -..--------------------------aaaaaaaaaaaaaaaaaaaaaaaaaaaaaaaaaaaaaaaaaaaaaaaaaaaaaaaaaaaaaaaaaaaaaaaaaaaaaaaaaabbbbbbbbbbbbbbbbbbbbbbbbbbbbbbaaaaaaaaaaaaaaaaaaaaaaaaaaaaaaaaaaaaaaaaaaaaaaaaaaaaaaaaaaaaaaaaaaaaaaaaaaaaaaaaaa--------------------------..-
(PID.TID 0000.0001) //    243 -..---------------------aaaaaaaaaaaaaaaaaaaaaaaaaaaaaaaaaaaaaaaaaaaaaaaaaaaabbbbbbbbbbbbbbbbbbbbbbbbbbbbbbbbbbbbbbbbbbbbbbbbbbbbbbbbbbbbbbbbbbbbbbbbbbbbbbbbbbbbbbbbbbbbbbbbbbbbaaaaaaaaaaaaaaaaaaaaaaaaaaaaaaaaaaaaaaaaaaaaaaaaaaaa---------------------..-
(PID.TID 0000.0001) //    242 -..-----------------aaaaaaaaaaaaaaaaaaaaaaaaaaaaaaaaaaaaaaaaabbbbbbbbbbbbbbbbbbbbbbbbbbbbbbbbbbbbbbbbbbbbbbbbbbbbbbbbbbbbbbbbbbbbbbbbbbbbbbbbbbbbbbbbbbbbbbbbbbbbbbbbbbbbbbbbbbbbbbbbbbbbbbbbbbaaaaaaaaaaaaaaaaaaaaaaaaaaaaaaaaaaaaaaaaa-----------------..-
(PID.TID 0000.0001) //    241 -..---------------aaaaaaaaaaaaaaaaaaaaaaaaaaaaaaaaaabbbbbbbbbbbbbbbbbbbbbbbbbbbbbbbbbbbbbbbbbbbbbbbbbbbbbbbbbbccccccccccccccccccccccccccccccccbbbbbbbbbbbbbbbbbbbbbbbbbbbbbbbbbbbbbbbbbbbbbbbbbbbbbbbbbbaaaaaaaaaaaaaaaaaaaaaaaaaaaaaaaaaa---------------..-
(PID.TID 0000.0001) //    240 -..-------------aaaaaaaaaaaaaaaaaaaaaaaaaaaaabbbbbbbbbbbbbbbbbbbbbbbbbbbbbbbbbbbbbbbccccccccccccccccccccccccccccccccccccccccccccccccccccccccccccccccccccccccccccccccccccbbbbbbbbbbbbbbbbbbbbbbbbbbbbbbbbbbbbbbbaaaaaaaaaaaaaaaaaaaaaaaaaaaaa-------------..-
(PID.TID 0000.0001) //    239 -..-----------aaaaaaaaaaaaaaaaaaaaaaaaaabbbbbbbbbbbbbbbbbbbbbbbbbbbbbbbbccccccccccccccccccccccccccccccccccccccccccccccccccccccccccccccccccccccccccccccccccccccccccccccccccccccccccccbbbbbbbbbbbbbbbbbbbbbbbbbbbbbbbbaaaaaaaaaaaaaaaaaaaaaaaaaa-----------..-
(PID.TID 0000.0001) //    238 -..----------aaaaaaaaaaaaaaaaaaaaaaabbbbbbbbbbbbbbbbbbbbbbbbbbbcccccccccccccccccccccccccccccccccccccccccccccccddddddddddddddddddddddddddddddddcccccccccccccccccccccccccccccccccccccccccccccccbbbbbbbbbbbbbbbbbbbbbbbbbbbaaaaaaaaaaaaaaaaaaaaaaa----------..-
(PID.TID 0000.0001) //    237 -..---------aaaaaaaaaaaaaaaaaaaaabbbbbbbbbbbbbbbbbbbbbbbbcccccccccccccccccccccccccccccccccddddddddddddddddddddddddddddddddddddddddddddddddddddddddddddddddddddddddcccccccccccccccccccccccccccccccccbbbbbbbbbbbbbbbbbbbbbbbbaaaaaaaaaaaaaaaaaaaaa---------..-
(PID.TID 0000.0001) //    236 -..--------aaaaaaaaaaaaaaaaaaaabbbbbbbbbbbbbbbbbbbbbccccccccccccccccccccccccccddddddddddddddddddddddddddddddddddddddddddddddddddddddddddddddddddddddddddddddddddddddddddddddddccccccccccccccccccccccccccbbbbbbbbbbbbbbbbbbbbbaaaaaaaaaaaaaaaaaaaa--------..-
(PID.TID 0000.0001) //    235 -..--------aaaaaaaaaaaaaaaaabbbbbbbbbbbbbbbbbbbbcccccccccccccccccccccccddddddddddddddddddddddddddddddddddddddddeeeeeeeeeeeeeeeeeeeeeeeeeeeeeeddddddddddddddddddddddddddddddddddddddddcccccccccccccccccccccccbbbbbbbbbbbbbbbbbbbbaaaaaaaaaaaaaaaaa--------..-
(PID.TID 0000.0001) //    234 -..-------aaaaaaaaaaaaaaaaabbbbbbbbbbbbbbbbbccccccccccccccccccccdddddddddddddddddddddddddddddeeeeeeeeeeeeeeeeeeeeeeeeeeeeeeeeeeeeeeeeeeeeeeeeeeeeeeeeeeeeeeeeeedddddddddddddddddddddddddddddccccccccccccccccccccbbbbbbbbbbbbbbbbbaaaaaaaaaaaaaaaaa-------..-
(PID.TID 0000.0001) //    233 -..-------aaaaaaaaaaaaaaabbbbbbbbbbbbbbbbcccccccccccccccccccdddddddddddddddddddddddeeeeeeeeeeeeeeeeeeeeeeeeeeeeeeeeeeeeeeeeeeeeeeeeeeeeeeeeeeeeeeeeeeeeeeeeeeeeeeeeeeeeeedddddddddddddddddddddddcccccccccccccccccccbbbbbbbbbbbbbbbbaaaaaaaaaaaaaaa-------..-
(PID.TID 0000.0001) //    232 -..------aaaaaaaaaaaaaaabbbbbbbbbbbbbbbccccccccccccccccdddddddddddddddddddddeeeeeeeeeeeeeeeeeeeeeeeeeeeeeeeeeeeffffffffffffffffffffffffffffffeeeeeeeeeeeeeeeeeeeeeeeeeeeeeeeeeeedddddddddddddddddddddccccccccccccccccbbbbbbbbbbbbbbbaaaaaaaaaaaaaaa------..-
(PID.TID 0000.0001) //    231 -..------aaaaaaaaaaaaabbbbbbbbbbbbbbccccccccccccccccddddddddddddddddddeeeeeeeeeeeeeeeeeeeeeeeeeeffffffffffffffffffffffffffffffffffffffffffffffffffffffffffffeeeeeeeeeeeeeeeeeeeeeeeeeeddddddddddddddddddccccccccccccccccbbbbbbbbbbbbbbaaaaaaaaaaaaa------..-
(PID.TID 0000.0001) //    230 -..-----aaaaaaaaaaaaabbbbbbbbbbbbbcccccccccccccccddddddddddddddddeeeeeeeeeeeeeeeeeeeeeeffffffffffffffffffffffffffffffffffffffffffffffffffffffffffffffffffffffffffffffeeeeeeeeeeeeeeeeeeeeeeddddddddddddddddcccccccccccccccbbbbbbbbbbbbbaaaaaaaaaaaaa-----..-
(PID.TID 0000.0001) //    229 -..-----aaaaaaaaaaaabbbbbbbbbbbbbcccccccccccccdddddddddddddddeeeeeeeeeeeeeeeeeeefffffffffffffffffffffffffffffffffggggggggggggggggggggggggggfffffffffffffffffffffffffffffffffeeeeeeeeeeeeeeeeeeedddddddddddddddcccccccccccccbbbbbbbbbbbbbaaaaaaaaaaaa-----..-
(PID.TID 0000.0001) //    228 -..-----aaaaaaaaaaabbbbbbbbbbbbcccccccccccccddddddddddddddeeeeeeeeeeeeeeeeffffffffffffffffffffffffggggggggggggggggggggggggggggggggggggggggggggggggggggggggffffffffffffffffffffffffeeeeeeeeeeeeeeeeddddddddddddddcccccccccccccbbbbbbbbbbbbaaaaaaaaaaa-----..-
(PID.TID 0000.0001) //    227 -..-----aaaaaaaaaaabbbbbbbbbbbccccccccccccdddddddddddddeeeeeeeeeeeeeeeffffffffffffffffffffggggggggggggggggggggggggggggggggggggggggggggggggggggggggggggggggggggggggffffffffffffffffffffeeeeeeeeeeeeeeedddddddddddddccccccccccccbbbbbbbbbbbaaaaaaaaaaa-----..-
(PID.TID 0000.0001) //    226 -..----aaaaaaaaaaabbbbbbbbbbbcccccccccccddddddddddddeeeeeeeeeeeeeefffffffffffffffffggggggggggggggggggggggggggggggghhhhhhhhhhhhhhhhhhhhhhhhgggggggggggggggggggggggggggggggfffffffffffffffffeeeeeeeeeeeeeeddddddddddddcccccccccccbbbbbbbbbbbaaaaaaaaaaa----..-
(PID.TID 0000.0001) //    225 -..----aaaaaaaaaabbbbbbbbbbcccccccccccddddddddddddeeeeeeeeeeeeefffffffffffffffgggggggggggggggggggggghhhhhhhhhhhhhhhhhhhhhhhhhhhhhhhhhhhhhhhhhhhhhhhhhhhhggggggggggggggggggggggfffffffffffffffeeeeeeeeeeeeeddddddddddddcccccccccccbbbbbbbbbbaaaaaaaaaa----..-
(PID.TID 0000.0001) //    224 -..----aaaaaaaaaabbbbbbbbbcccccccccccdddddddddddeeeeeeeeeeeeffffffffffffffgggggggggggggggggghhhhhhhhhhhhhhhhhhhhhhhhhhhhhhhhhhhhhhhhhhhhhhhhhhhhhhhhhhhhhhhhhhhhggggggggggggggggggffffffffffffffeeeeeeeeeeeedddddddddddcccccccccccbbbbbbbbbaaaaaaaaaa----..-
(PID.TID 0000.0001) //    223 -..----aaaaaaaaabbbbbbbbbccccccccccdddddddddddeeeeeeeeeeefffffffffffffgggggggggggggggghhhhhhhhhhhhhhhhhhhhhhhhhhhhhhiiiiiiiiiiiiiiiiiiiihhhhhhhhhhhhhhhhhhhhhhhhhhhhhhggggggggggggggggfffffffffffffeeeeeeeeeeedddddddddddccccccccccbbbbbbbbbaaaaaaaaa----..-
(PID.TID 0000.0001) //    222 -..----aaaaaaaabbbbbbbbbbcccccccccddddddddddeeeeeeeeeeeffffffffffffgggggggggggggghhhhhhhhhhhhhhhhhhhhhhiiiiiiiiiiiiiiiiiiiiiiiiiiiiiiiiiiiiiiiiiiiiiihhhhhhhhhhhhhhhhhhhhhhggggggggggggggffffffffffffeeeeeeeeeeeddddddddddcccccccccbbbbbbbbbbaaaaaaaa----..-
(PID.TID 0000.0001) //    221 -..---aaaaaaaaabbbbbbbbbcccccccccdddddddddeeeeeeeeeeefffffffffffggggggggggggghhhhhhhhhhhhhhhhhhiiiiiiiiiiiiiiiiiiiiiiiiiiiiiiiiiiiiiiiiiiiiiiiiiiiiiiiiiiiiiihhhhhhhhhhhhhhhhhhgggggggggggggfffffffffffeeeeeeeeeeedddddddddcccccccccbbbbbbbbbaaaaaaaaa---..-
(PID.TID 0000.0001) //    220 -..---aaaaaaaaabbbbbbbbcccccccccdddddddddeeeeeeeeeeffffffffffggggggggggggghhhhhhhhhhhhhhhiiiiiiiiiiiiiiiiiiiiiiiiiiiiiiijjjjjjjjjjjjiiiiiiiiiiiiiiiiiiiiiiiiiiiiiiihhhhhhhhhhhhhhhgggggggggggggffffffffffeeeeeeeeeedddddddddcccccccccbbbbbbbbaaaaaaaaa---..-
(PID.TID 0000.0001) //    219 -..---aaaaaaaabbbbbbbbcccccccccddddddddeeeeeeeeeeffffffffffggggggggggghhhhhhhhhhhhhhiiiiiiiiiiiiiiiiiiiiijjjjjjjjjjjjjjjjjjjjjjjjjjjjjjjjjjjjjjjjjjiiiiiiiiiiiiiiiiiiiiihhhhhhhhhhhhhhgggggggggggffffffffffeeeeeeeeeeddddddddcccccccccbbbbbbbbaaaaaaaa---..-
(PID.TID 0000.0001) //    218 -..---aaaaaaaabbbbbbbbccccccccddddddddeeeeeeeeeffffffffffggggggggggghhhhhhhhhhhhiiiiiiiiiiiiiiiiijjjjjjjjjjjjjjjjjjjjjjjjjjjjjjjjjjjjjjjjjjjjjjjjjjjjjjjjjjiiiiiiiiiiiiiiiiihhhhhhhhhhhhgggggggggggffffffffffeeeeeeeeeddddddddccccccccbbbbbbbbaaaaaaaa---..-
(PID.TID 0000.0001) //    217 -..---aaaaaaabbbbbbbbccccccccddddddddeeeeeeeeefffffffffgggggggggghhhhhhhhhhhhiiiiiiiiiiiiiiijjjjjjjjjjjjjjjjjjjjjjjjjjjjjjjjjjjjjjjjjjjjjjjjjjjjjjjjjjjjjjjjjjjjiiiiiiiiiiiiiiihhhhhhhhhhhhggggggggggfffffffffeeeeeeeeeddddddddccccccccbbbbbbbbaaaaaaa---..-
(PID.TID 0000.0001) //    216 -..---aaaaaaabbbbbbbccccccccddddddddeeeeeeeefffffffffgggggggggghhhhhhhhhhhiiiiiiiiiiiiijjjjjjjjjjjjjjjjjjjjkkkkkkkkkkkkkkkkkkkkkkkkkkkkkkkkkkkkkkjjjjjjjjjjjjjjjjjjjjiiiiiiiiiiiiihhhhhhhhhhhggggggggggfffffffffeeeeeeeeddddddddccccccccbbbbbbbaaaaaaa---..-
(PID.TID 0000.0001) //    215 -..---aaaaaaabbbbbbbcccccccddddddddeeeeeeeeffffffffgggggggggghhhhhhhhhhiiiiiiiiiiiijjjjjjjjjjjjjjjjjkkkkkkkkkkkkkkkkkkkkkkkkkkkkkkkkkkkkkkkkkkkkkkkkkkkkjjjjjjjjjjjjjjjjjiiiiiiiiiiiihhhhhhhhhhggggggggggffffffffeeeeeeeeddddddddcccccccbbbbbbbaaaaaaa---..-
(PID.TID 0000.0001) //    214 -..---aaaaaabbbbbbbccccccccdddddddeeeeeeeeffffffffggggggggghhhhhhhhhiiiiiiiiiiiijjjjjjjjjjjjjjkkkkkkkkkkkkkkkkkkkkkkkkkkkkkkkkkkkkkkkkkkkkkkkkkkkkkkkkkkkkkkkkjjjjjjjjjjjjjjiiiiiiiiiiiihhhhhhhhhgggggggggffffffffeeeeeeeedddddddccccccccbbbbbbbaaaaaa---..-
(PID.TID 0000.0001) //    213 -..--aaaaaaabbbbbbbcccccccdddddddeeeeeeeefffffffggggggggghhhhhhhhhiiiiiiiiiiijjjjjjjjjjjjjkkkkkkkkkkkkkkkkkkkkllllllllllllllllllllllllllllllllkkkkkkkkkkkkkkkkkkkkjjjjjjjjjjjjjiiiiiiiiiiihhhhhhhhhgggggggggfffffffeeeeeeeedddddddcccccccbbbbbbbaaaaaaa--..-
(PID.TID 0000.0001) //    212 -..--aaaaaaabbbbbbbccccccdddddddeeeeeeeffffffffgggggggghhhhhhhhhiiiiiiiiiijjjjjjjjjjjjkkkkkkkkkkkkkkkkllllllllllllllllllllllllllllllllllllllllllllllllkkkkkkkkkkkkkkkkjjjjjjjjjjjjiiiiiiiiiihhhhhhhhhggggggggffffffffeeeeeeedddddddccccccbbbbbbbaaaaaaa--..-
(PID.TID 0000.0001) //    211 -..--aaaaaaabbbbbbcccccccddddddeeeeeeeffffffffgggggggghhhhhhhhiiiiiiiiijjjjjjjjjjjkkkkkkkkkkkkkkkllllllllllllllllllllllllllllllllllllllllllllllllllllllllllkkkkkkkkkkkkkkkjjjjjjjjjjjiiiiiiiiihhhhhhhhggggggggffffffffeeeeeeeddddddcccccccbbbbbbaaaaaaa--..-
(PID.TID 0000.0001) //    210 -..--aaaaaabbbbbbbccccccdddddddeeeeeeefffffffggggggghhhhhhhhiiiiiiiiijjjjjjjjjjkkkkkkkkkkkkkllllllllllllllllllllllmmmmmmmmmmmmmmmmmmmmmmmmllllllllllllllllllllllkkkkkkkkkkkkkjjjjjjjjjjiiiiiiiiihhhhhhhhgggggggfffffffeeeeeeedddddddccccccbbbbbbbaaaaaa--..-
(PID.TID 0000.0001) //    209 -..--aaaaaabbbbbbcccccccddddddeeeeeeefffffffggggggghhhhhhhhiiiiiiiijjjjjjjjjjkkkkkkkkkkklllllllllllllllllmmmmmmmmmmmmmmmmmmmmmmmmmmmmmmmmmmmmmmmmmmlllllllllllllllllkkkkkkkkkkkjjjjjjjjjjiiiiiiiihhhhhhhhgggggggfffffffeeeeeeeddddddcccccccbbbbbbaaaaaa--..-
(PID.TID 0000.0001) //    208 -..--aaaaaabbbbbbccccccddddddeeeeeeefffffffggggggghhhhhhhiiiiiiiijjjjjjjjjkkkkkkkkkkkllllllllllllllmmmmmmmmmmmmmmmmmmmmmmmmmmmmmmmmmmmmmmmmmmmmmmmmmmmmmmllllllllllllllkkkkkkkkkkkjjjjjjjjjiiiiiiiihhhhhhhgggggggfffffffeeeeeeeddddddccccccbbbbbbaaaaaa--..-
(PID.TID 0000.0001) //    207 -..--aaaaaabbbbbbccccccddddddeeeeeefffffffgggggghhhhhhhhiiiiiiijjjjjjjjjkkkkkkkkkklllllllllllllmmmmmmmmmmmmmmmmmmmmmmmmmnnnnnnnnnnnnmmmmmmmmmmmmmmmmmmmmmmmmmlllllllllllllkkkkkkkkkkjjjjjjjjjiiiiiiihhhhhhhhggggggfffffffeeeeeeddddddccccccbbbbbbaaaaaa--..-
(PID.TID 0000.0001) //    206 -..--aaaaaabbbbbccccccddddddeeeeeefffffffgggggghhhhhhhiiiiiiiijjjjjjjjkkkkkkkkkllllllllllllmmmmmmmmmmmmmmmmmnnnnnnnnnnnnnnnnnnnnnnnnnnnnnnnnnnnnmmmmmmmmmmmmmmmmmllllllllllllkkkkkkkkkjjjjjjjjiiiiiiiihhhhhhhggggggfffffffeeeeeeddddddccccccbbbbbaaaaaa--..-
(PID.TID 0000.0001) //    205 -..--aaaaabbbbbbccccccddddddeeeeeeffffffgggggghhhhhhhiiiiiiijjjjjjjjkkkkkkkkklllllllllllmmmmmmmmmmmmmmnnnnnnnnnnnnnnnnnnnnnnnnnnnnnnnnnnnnnnnnnnnnnnnnmmmmmmmmmmmmmmlllllllllllkkkkkkkkkjjjjjjjjiiiiiiihhhhhhhggggggffffffeeeeeeddddddccccccbbbbbbaaaaa--..-
(PID.TID 0000.0001) //    204 -..--aaaaabbbbbbcccccddddddeeeeeeffffffgggggghhhhhhhiiiiiiijjjjjjjkkkkkkkkkllllllllllmmmmmmmmmmmmmnnnnnnnnnnnnnnnnnnnnnnnnnnnnnnnnnnnnnnnnnnnnnnnnnnnnnnnnmmmmmmmmmmmmmllllllllllkkkkkkkkkjjjjjjjiiiiiiihhhhhhhggggggffffffeeeeeeddddddcccccbbbbbbaaaaa--..-
(PID.TID 0000.0001) //    203 -..--aaaaabbbbbbcccccddddddeeeeeffffffgggggghhhhhhhiiiiiijjjjjjjjkkkkkkkklllllllllmmmmmmmmmmmmnnnnnnnnnnnnnnnnnnnoooooooooooooooooooooooooonnnnnnnnnnnnnnnnnnnmmmmmmmmmmmmlllllllllkkkkkkkkjjjjjjjjiiiiiihhhhhhhggggggffffffeeeeeddddddcccccbbbbbbaaaaa--..-
(PID.TID 0000.0001) //    202 -..--aaaaabbbbbccccccdddddeeeeeefffffgggggghhhhhhhiiiiiijjjjjjjkkkkkkkklllllllllmmmmmmmmmmnnnnnnnnnnnnnnnnoooooooooooooooooooooooooooooooooooooooonnnnnnnnnnnnnnnnmmmmmmmmmmlllllllllkkkkkkkkjjjjjjjiiiiiihhhhhhhggggggfffffeeeeeedddddccccccbbbbbaaaaa--..-
(PID.TID 0000.0001) //    201 -..--aaaaabbbbbcccccddddddeeeeeffffffgggggghhhhhhiiiiiijjjjjjjkkkkkkklllllllllmmmmmmmmmmnnnnnnnnnnnnnoooooooooooooooooooooooooooooooooooooooooooooooooonnnnnnnnnnnnnmmmmmmmmmmlllllllllkkkkkkkjjjjjjjiiiiiihhhhhhggggggffffffeeeeeddddddcccccbbbbbaaaaa--..-
(PID.TID 0000.0001) //    200 -..--aaaaabbbbbcccccdddddeeeeeefffffgggggghhhhhhiiiiiijjjjjjkkkkkkkkllllllllmmmmmmmmmnnnnnnnnnnnnooooooooooooooooooooooppppppppppppppoooooooooooooooooooooonnnnnnnnnnnnmmmmmmmmmllllllllkkkkkkkkjjjjjjiiiiiihhhhhhggggggfffffeeeeeedddddcccccbbbbbaaaaa--..-
(PID.TID 0000.0001) //    199 -..--aaaaabbbbbcccccdddddeeeeefffffgggggghhhhhhiiiiiijjjjjjkkkkkkkllllllllmmmmmmmmmnnnnnnnnnnoooooooooooooooooppppppppppppppppppppppppppppppppooooooooooooooooonnnnnnnnnnmmmmmmmmmllllllllkkkkkkkjjjjjjiiiiiihhhhhhggggggfffffeeeeedddddcccccbbbbbaaaaa--..-
(PID.TID 0000.0001) //    198 -..-aaaaabbbbbcccccdddddeeeeeefffffggggghhhhhhiiiiiijjjjjjkkkkkkklllllllmmmmmmmmnnnnnnnnnnooooooooooooooppppppppppppppppppppppppppppppppppppppppppppoooooooooooooonnnnnnnnnnmmmmmmmmlllllllkkkkkkkjjjjjjiiiiiihhhhhhgggggfffffeeeeeedddddcccccbbbbbaaaaa-..-
(PID.TID 0000.0001) //    197 -..-aaaaabbbbbcccccdddddeeeeefffffgggggghhhhhiiiiiijjjjjjkkkkkkllllllllmmmmmmmnnnnnnnnnnooooooooooooppppppppppppppppppppppppppppppppppppppppppppppppppppoooooooooooonnnnnnnnnnmmmmmmmllllllllkkkkkkjjjjjjiiiiiihhhhhggggggfffffeeeeedddddcccccbbbbbaaaaa-..-
(PID.TID 0000.0001) //    196 -..-aaaaabbbbbcccccdddddeeeeefffffggggghhhhhiiiiiijjjjjjkkkkkklllllllmmmmmmmmnnnnnnnnooooooooooopppppppppppppppppppqqqqqqqqqqqqqqqqqqqqqqpppppppppppppppppppooooooooooonnnnnnnnmmmmmmmmlllllllkkkkkkjjjjjjiiiiiihhhhhgggggfffffeeeeedddddcccccbbbbbaaaaa-..-
(PID.TID 0000.0001) //    195 -..-aaaaabbbbbccccdddddeeeeefffffggggghhhhhhiiiiijjjjjjkkkkkklllllllmmmmmmmnnnnnnnnoooooooooopppppppppppppppqqqqqqqqqqqqqqqqqqqqqqqqqqqqqqqqqqqqpppppppppppppppoooooooooonnnnnnnnmmmmmmmlllllllkkkkkkjjjjjjiiiiihhhhhhgggggfffffeeeeedddddccccbbbbbaaaaa-..-
(PID.TID 0000.0001) //    194 -..-aaaaabbbbbccccdddddeeeeefffffggggghhhhhiiiiijjjjjjkkkkkkllllllmmmmmmmnnnnnnnnoooooooooopppppppppppppqqqqqqqqqqqqqqqqqqqqqqqqqqqqqqqqqqqqqqqqqqqqpppppppppppppoooooooooonnnnnnnnmmmmmmmllllllkkkkkkjjjjjjiiiiihhhhhgggggfffffeeeeedddddccccbbbbbaaaaa-..-
(PID.TID 0000.0001) //    193 -..-aaaaabbbbcccccdddddeeeefffffggggghhhhhiiiiijjjjjjkkkkkkllllllmmmmmmmnnnnnnnoooooooooppppppppppppqqqqqqqqqqqqqqqqqqqqqqqqqqqqqqqqqqqqqqqqqqqqqqqqqqqqppppppppppppooooooooonnnnnnnmmmmmmmllllllkkkkkkjjjjjjiiiiihhhhhgggggfffffeeeedddddcccccbbbbaaaaa-..-
(PID.TID 0000.0001) //    192 -..-aaaaabbbbcccccddddeeeeefffffggggghhhhhiiiiijjjjjkkkkkkllllllmmmmmmnnnnnnnnoooooooopppppppppppqqqqqqqqqqqqqqqqqrrrrrrrrrrrrrrrrrrrrrrrrqqqqqqqqqqqqqqqqqpppppppppppoooooooonnnnnnnnmmmmmmllllllkkkkkkjjjjjiiiiihhhhhgggggfffffeeeeeddddcccccbbbbaaaaa-..-
(PID.TID 0000.0001) //    191 -..-aaaaabbbbcccccddddeeeeeffffggggghhhhhiiiiijjjjjkkkkkkllllllmmmmmmnnnnnnnooooooooppppppppppqqqqqqqqqqqqqqrrrrrrrrrrrrrrrrrrrrrrrrrrrrrrrrrrrrqqqqqqqqqqqqqqppppppppppoooooooonnnnnnnmmmmmmllllllkkkkkkjjjjjiiiiihhhhhgggggffffeeeeeddddcccccbbbbaaaaa-..-
(PID.TID 0000.0001) //    190 -..-aaaaabbbbccccdddddeeeefffffggggghhhhiiiiijjjjjkkkkkkllllllmmmmmmnnnnnnnooooooopppppppppqqqqqqqqqqqqqrrrrrrrrrrrrrrrrrrrrrrrrrrrrrrrrrrrrrrrrrrrrqqqqqqqqqqqqqpppppppppooooooonnnnnnnmmmmmmllllllkkkkkkjjjjjiiiiihhhhgggggfffffeeeedddddccccbbbbaaaaa-..-
(PID.TID 0000.0001) //    189 -..-aaaabbbbbccccddddeeeeeffffggggghhhhhiiiiijjjjjkkkkkllllllmmmmmmnnnnnnooooooooppppppppqqqqqqqqqqqrrrrrrrrrrrrrrrrrrrrrrrrrrrrrrrrrrrrrrrrrrrrrrrrrrrrqqqqqqqqqqqppppppppoooooooonnnnnnmmmmmmllllllkkkkkjjjjjiiiiihhhhhgggggffffeeeeeddddccccbbbbbaaaa-..-
(PID.TID 0000.0001) //    188 -..-aaaabbbbbccccddddeeeeeffffggggghhhhiiiiijjjjjkkkkkllllllmmmmmmnnnnnnoooooooppppppppqqqqqqqqqqrrrrrrrrrrrrrrrrrssssssssssssssssssssssssrrrrrrrrrrrrrrrrrqqqqqqqqqqppppppppooooooonnnnnnmmmmmmllllllkkkkkjjjjjiiiiihhhhgggggffffeeeeeddddccccbbbbbaaaa-..-
(PID.TID 0000.0001) //    187 -..-aaaabbbbcccccddddeeeefffffgggghhhhhiiiijjjjjkkkkkllllllmmmmmmnnnnnnooooooopppppppqqqqqqqqqqrrrrrrrrrrrrrssssssssssssssssssssssssssssssssssssrrrrrrrrrrrrrqqqqqqqqqqpppppppooooooonnnnnnmmmmmmllllllkkkkkjjjjjiiiihhhhhggggfffffeeeeddddcccccbbbbaaaa-..-
(PID.TID 0000.0001) //    186 -..-aaaabbbbccccdddddeeeeffffggggghhhhiiiiijjjjjkkkkklllllmmmmmmnnnnnnooooooppppppppqqqqqqqqrrrrrrrrrrrrssssssssssssssssssssssssssssssssssssssssssssrrrrrrrrrrrrqqqqqqqqppppppppoooooonnnnnnmmmmmmlllllkkkkkjjjjjiiiiihhhhgggggffffeeeedddddccccbbbbaaaa-..-
(PID.TID 0000.0001) //    185 -..-aaaabbbbccccddddeeeeeffffgggghhhhhiiiijjjjjkkkkklllllmmmmmmnnnnnooooooopppppppqqqqqqqqrrrrrrrrrrrssssssssssssssssssssssssssssssssssssssssssssssssssrrrrrrrrrrrqqqqqqqqpppppppooooooonnnnnmmmmmmlllllkkkkkjjjjjiiiihhhhhggggffffeeeeeddddccccbbbbaaaa-..-
(PID.TID 0000.0001) //    184 -..-aaaabbbbccccddddeeeefffffgggghhhhiiiiijjjjkkkkklllllmmmmmmnnnnnoooooooppppppqqqqqqqqrrrrrrrrrrsssssssssssssssssttttttttttttttttttttttsssssssssssssssssrrrrrrrrrrqqqqqqqqppppppooooooonnnnnmmmmmmlllllkkkkkjjjjiiiiihhhhggggfffffeeeeddddccccbbbbaaaa-..-
(PID.TID 0000.0001) //    183 -..-aaaabbbbccccddddeeeeffffggggghhhhiiiijjjjjkkkkklllllmmmmmnnnnnoooooopppppppqqqqqqqqrrrrrrrrrssssssssssssssttttttttttttttttttttttttttttttttssssssssssssssrrrrrrrrrqqqqqqqqpppppppoooooonnnnnmmmmmlllllkkkkkjjjjjiiiihhhhgggggffffeeeeddddccccbbbbaaaa-..-
(PID.TID 0000.0001) //    182 -..-aaaabbbbccccddddeeeeffffgggghhhhiiiiijjjjkkkkklllllmmmmmnnnnnoooooopppppppqqqqqqqrrrrrrrrrssssssssssssttttttttttttttttttttttttttttttttttttttttssssssssssssrrrrrrrrrqqqqqqqpppppppoooooonnnnnmmmmmlllllkkkkkjjjjiiiiihhhhggggffffeeeeddddccccbbbbaaaa-..-
(PID.TID 0000.0001) //    181 -..-aaaabbbbccccddddeeeeffffgggghhhhiiiijjjjjkkkklllllmmmmmnnnnnnooooopppppppqqqqqqqrrrrrrrrsssssssssssttttttttttttttttttttttttttttttttttttttttttttttsssssssssssrrrrrrrrqqqqqqqpppppppooooonnnnnnmmmmmlllllkkkkjjjjjiiiihhhhggggffffeeeeddddccccbbbbaaaa-..-
(PID.TID 0000.0001) //    180 -..-aaaabbbbccccdddeeeeffffgggghhhhhiiiijjjjkkkkklllllmmmmnnnnnnoooooppppppqqqqqqqrrrrrrrrssssssssssttttttttttttttttttuuuuuuuuuuuuuuuuttttttttttttttttttssssssssssrrrrrrrrqqqqqqqppppppooooonnnnnnmmmmlllllkkkkkjjjjiiiihhhhhggggffffeeeedddccccbbbbaaaa-..-
(PID.TID 0000.0001) //    179 -..-aaaabbbbcccddddeeeeffffgggghhhhiiiijjjjjkkkklllllmmmmmnnnnnoooooppppppqqqqqqqrrrrrrrssssssssssttttttttttttttuuuuuuuuuuuuuuuuuuuuuuuuuuuuttttttttttttttssssssssssrrrrrrrqqqqqqqppppppooooonnnnnmmmmmlllllkkkkjjjjjiiiihhhhggggffffeeeeddddcccbbbbaaaa-..-
(PID.TID 0000.0001) //    178 -..-aaaabbbccccddddeeeeffffgggghhhhiiiijjjjkkkkkllllmmmmmnnnnnoooooppppppqqqqqqqrrrrrrrsssssssssttttttttttttuuuuuuuuuuuuuuuuuuuuuuuuuuuuuuuuuuuuttttttttttttsssssssssrrrrrrrqqqqqqqppppppooooonnnnnmmmmmllllkkkkkjjjjiiiihhhhggggffffeeeeddddccccbbbaaaa-..-
(PID.TID 0000.0001) //    177 -..-aaaabbbccccddddeeeeffffgggghhhhiiiijjjjkkkklllllmmmmnnnnnoooooopppppqqqqqqrrrrrrrssssssssstttttttttttuuuuuuuuuuuuuuuuuuuuuuuuuuuuuuuuuuuuuuuuuutttttttttttsssssssssrrrrrrrqqqqqqpppppoooooonnnnnmmmmlllllkkkkjjjjiiiihhhhggggffffeeeeddddccccbbbaaaa-..-
(PID.TID 0000.0001) //    176 -..-aaaabbbccccddddeeeffffgggghhhhiiiijjjjkkkkkllllmmmmmnnnnnooooopppppqqqqqqrrrrrrrssssssssttttttttttuuuuuuuuuuuuuuuuuuuuuuuuuuuuuuuuuuuuuuuuuuuuuuuuttttttttttssssssssrrrrrrrqqqqqqpppppooooonnnnnmmmmmllllkkkkkjjjjiiiihhhhggggffffeeeddddccccbbbaaaa-..-
(PID.TID 0000.0001) //    175 -..-aaaabbbccccddddeeeffffgggghhhhiiiijjjjkkkklllllmmmmnnnnnooooopppppqqqqqqrrrrrrrsssssssttttttttttuuuuuuuuuuuuuuuuvvvvvvvvvvvvvvvvvvvvuuuuuuuuuuuuuuuuttttttttttsssssssrrrrrrrqqqqqqpppppooooonnnnnmmmmlllllkkkkjjjjiiiihhhhggggffffeeeddddccccbbbaaaa-..-
(PID.TID 0000.0001) //    174 -..-aaabbbbccccdddeeeeffffgggghhhhiiiijjjjkkkkllllmmmmmnnnnoooooppppppqqqqqrrrrrrrssssssstttttttttuuuuuuuuuuuuuuvvvvvvvvvvvvvvvvvvvvvvvvvvvvuuuuuuuuuuuuuutttttttttsssssssrrrrrrrqqqqqppppppooooonnnnmmmmmllllkkkkjjjjiiiihhhhggggffffeeeedddccccbbbbaaa-..-
(PID.TID 0000.0001) //    173 -..-aaabbbbccccdddeeeeffffggghhhhiiiijjjjkkkklllllmmmmnnnnnooooopppppqqqqqrrrrrrrsssssssttttttttuuuuuuuuuuuuvvvvvvvvvvvvvvvvvvvvvvvvvvvvvvvvvvvvuuuuuuuuuuuuttttttttsssssssrrrrrrrqqqqqpppppooooonnnnnmmmmlllllkkkkjjjjiiiihhhhgggffffeeeedddccccbbbbaaa-..-
(PID.TID 0000.0001) //    172 -..-aaabbbbcccddddeeeefffgggghhhhiiiijjjjkkkkllllmmmmnnnnnooooopppppqqqqqrrrrrrsssssssttttttttuuuuuuuuuuuvvvvvvvvvvvvvvvvvvvvvvvvvvvvvvvvvvvvvvvvvvuuuuuuuuuuuttttttttsssssssrrrrrrqqqqqpppppooooonnnnnmmmmllllkkkkjjjjiiiihhhhggggfffeeeeddddcccbbbbaaa-..-
(PID.TID 0000.0001) //    171 -..-aaabbbbcccddddeeeefffgggghhhhiiiijjjkkkklllllmmmmnnnnooooopppppqqqqqqrrrrrsssssssttttttttuuuuuuuuuuvvvvvvvvvvvvvvvvvvvvvvvvvvvvvvvvvvvvvvvvvvvvvvuuuuuuuuuuttttttttsssssssrrrrrqqqqqqpppppooooonnnnmmmmlllllkkkkjjjiiiihhhhggggfffeeeeddddcccbbbbaaa-..-
(PID.TID 0000.0001) //    170 -..-aaabbbbcccddddeeeffffgggghhhiiiijjjjkkkkllllmmmmnnnnnoooooppppqqqqqqrrrrrrsssssstttttttuuuuuuuuuuvvvvvvvvvvvvvvvvwwwwwwwwwwwwwwwwwwvvvvvvvvvvvvvvvvuuuuuuuuuutttttttssssssrrrrrrqqqqqqppppooooonnnnnmmmmllllkkkkjjjjiiiihhhggggffffeeeddddcccbbbbaaa-..-
(PID.TID 0000.0001) //    169 -..-aaabbbbcccddddeeeffffggghhhhiiiijjjjkkkkllllmmmmnnnnooooopppppqqqqqrrrrrrsssssstttttttuuuuuuuuuvvvvvvvvvvvvvvwwwwwwwwwwwwwwwwwwwwwwwwwwvvvvvvvvvvvvvvuuuuuuuuutttttttssssssrrrrrrqqqqqpppppooooonnnnmmmmllllkkkkjjjjiiiihhhhgggffffeeeddddcccbbbbaaa-..-
(PID.TID 0000.0001) //    168 -..-aaabbbbcccddddeeeffffggghhhhiiiijjjkkkkllllmmmmmnnnnoooopppppqqqqqrrrrrrsssssstttttttuuuuuuuuvvvvvvvvvvvvwwwwwwwwwwwwwwwwwwwwwwwwwwwwwwwwwwvvvvvvvvvvvvuuuuuuuutttttttssssssrrrrrrqqqqqpppppoooonnnnmmmmmllllkkkkjjjiiiihhhhgggffffeeeddddcccbbbbaaa-..-
(PID.TID 0000.0001) //    167 -..-aaabbbbcccdddeeeefffgggghhhhiiijjjjkkkkllllmmmmnnnnooooopppppqqqqqrrrrrsssssstttttttuuuuuuuuvvvvvvvvvvvwwwwwwwwwwwwwwwwwwwwwwwwwwwwwwwwwwwwwwvvvvvvvvvvvuuuuuuuutttttttssssssrrrrrqqqqqpppppooooonnnnmmmmllllkkkkjjjjiiihhhhggggfffeeeedddcccbbbbaaa-..-
(PID.TID 0000.0001) //    166 -..-aaabbbccccdddeeeefffgggghhhiiiijjjjkkkkllllmmmmnnnnoooopppppqqqqqrrrrrsssssstttttttuuuuuuuvvvvvvvvvvvwwwwwwwwwwwwwwwwwwwwwwwwwwwwwwwwwwwwwwwwwwvvvvvvvvvvvuuuuuuutttttttssssssrrrrrqqqqqpppppoooonnnnmmmmllllkkkkjjjjiiiihhhggggfffeeeedddccccbbbaaa-..-
(PID.TID 0000.0001) //    165 -..-aaabbbccccdddeeeefffgggghhhiiiijjjjkkkllllmmmmnnnnoooooppppqqqqqrrrrrsssssstttttttuuuuuuuvvvvvvvvvvwwwwwwwwwwwwwwwwwwwxxxxxxxxwwwwwwwwwwwwwwwwwwwvvvvvvvvvvuuuuuuutttttttssssssrrrrrqqqqqppppooooonnnnmmmmllllkkkjjjjiiiihhhggggfffeeeedddccccbbbaaa-..-
(PID.TID 0000.0001) //    164 -..-aaabbbccccdddeeeefffggghhhhiiiijjjkkkkllllmmmmnnnnoooopppppqqqqqrrrrrssssstttttttuuuuuuuvvvvvvvvvwwwwwwwwwwwwwwwxxxxxxxxxxxxxxxxxxxxwwwwwwwwwwwwwwwvvvvvvvvvuuuuuuutttttttsssssrrrrrqqqqqpppppoooonnnnmmmmllllkkkkjjjiiiihhhhgggfffeeeedddccccbbbaaa-..-
(PID.TID 0000.0001) //    163 -..-aaabbbccccdddeeeffffggghhhhiiijjjjkkkkllllmmmmnnnnooooppppqqqqqrrrrrssssssttttttuuuuuuuvvvvvvvvwwwwwwwwwwwwwxxxxxxxxxxxxxxxxxxxxxxxxxxxxwwwwwwwwwwwwwvvvvvvvvuuuuuuuttttttssssssrrrrrqqqqqppppoooonnnnmmmmllllkkkkjjjjiiihhhhgggffffeeedddccccbbbaaa-..-
(PID.TID 0000.0001) //    162 -..-aaabbbccccdddeeeffffggghhhhiiijjjjkkkllllmmmmnnnnoooopppppqqqqrrrrrssssssttttttuuuuuuuvvvvvvvvwwwwwwwwwwwwxxxxxxxxxxxxxxxxxxxxxxxxxxxxxxxxwwwwwwwwwwwwvvvvvvvvuuuuuuuttttttssssssrrrrrqqqqpppppoooonnnnmmmmllllkkkjjjjiiihhhhgggffffeeedddccccbbbaaa-..-
(PID.TID 0000.0001) //    161 -..-aaabbbccccdddeeeffffggghhhiiiijjjjkkkllllmmmmnnnnooooppppqqqqqrrrrrsssssttttttuuuuuuuvvvvvvvvwwwwwwwwwwxxxxxxxxxxxxxxxxxxxxxxxxxxxxxxxxxxxxxxwwwwwwwwwwvvvvvvvvuuuuuuuttttttsssssrrrrrqqqqqppppoooonnnnmmmmllllkkkjjjjiiiihhhgggffffeeedddccccbbbaaa-..-
(PID.TID 0000.0001) //    160 -..-aaabbbcccddddeeefffgggghhhiiiijjjkkkkllllmmmnnnnoooooppppqqqqrrrrrsssssttttttuuuuuuuvvvvvvvwwwwwwwwwwwxxxxxxxxxxxxxxxxxxxxxxxxxxxxxxxxxxxxxxxxwwwwwwwwwwwvvvvvvvuuuuuuuttttttsssssrrrrrqqqqppppooooonnnnmmmllllkkkkjjjiiiihhhggggfffeeeddddcccbbbaaa-..-
(PID.TID 0000.0001) //    159 -..-aaabbbcccddddeeefffgggghhhiiiijjjkkkklllmmmmnnnnooooppppqqqqqrrrrrssssstttttuuuuuuuvvvvvvvwwwwwwwwwwxxxxxxxxxxxxxxxxxxxxxxxxxxxxxxxxxxxxxxxxxxxxwwwwwwwwwwvvvvvvvuuuuuuutttttsssssrrrrrqqqqqppppoooonnnnmmmmlllkkkkjjjiiiihhhggggfffeeeddddcccbbbaaa-..-
(PID.TID 0000.0001) //    158 -..-aaabbbcccddddeeefffggghhhhiiijjjjkkkllllmmmmnnnnooooppppqqqqrrrrrsssssttttttuuuuuuvvvvvvvwwwwwwwwwxxxxxxxxxxxxxxxxxyyyyyyyyyyyyyyxxxxxxxxxxxxxxxxxwwwwwwwwwvvvvvvvuuuuuuttttttsssssrrrrrqqqqppppoooonnnnmmmmllllkkkjjjjiiihhhhgggfffeeeddddcccbbbaaa-..-
(PID.TID 0000.0001) //    157 -..-aaabbbcccdddeeeefffggghhhhiiijjjjkkkllllmmmmnnnoooopppppqqqqrrrrrssssstttttuuuuuuvvvvvvvwwwwwwwwwxxxxxxxxxxxxxxyyyyyyyyyyyyyyyyyyyyyyxxxxxxxxxxxxxxwwwwwwwwwvvvvvvvuuuuuutttttsssssrrrrrqqqqpppppoooonnnmmmmllllkkkjjjjiiihhhhgggfffeeeedddcccbbbaaa-..-
(PID.TID 0000.0001) //    156 -..-aaabbbcccdddeeeefffggghhhhiiijjjkkkkllllmmmnnnnooooppppqqqqqrrrrssssstttttuuuuuuvvvvvvvwwwwwwwwwxxxxxxxxxxxxyyyyyyyyyyyyyyyyyyyyyyyyyyyyxxxxxxxxxxxxwwwwwwwwwvvvvvvvuuuuuutttttsssssrrrrqqqqqppppoooonnnnmmmllllkkkkjjjiiihhhhgggfffeeeedddcccbbbaaa-..-
(PID.TID 0000.0001) //    155 -..-aaabbbcccdddeeeefffggghhhiiiijjjkkkklllmmmmnnnnooooppppqqqqrrrrrssssstttttuuuuuuvvvvvvwwwwwwwwxxxxxxxxxxxxyyyyyyyyyyyyyyyyyyyyyyyyyyyyyyyyxxxxxxxxxxxxwwwwwwwwvvvvvvuuuuuutttttsssssrrrrrqqqqppppoooonnnnmmmmlllkkkkjjjiiiihhhgggfffeeeedddcccbbbaaa-..-
(PID.TID 0000.0001) //    154 -..-aaabbbcccdddeeeffffggghhhiiiijjjkkkklllmmmmnnnnooopppppqqqqrrrrssssstttttuuuuuuvvvvvvvwwwwwwwxxxxxxxxxxxyyyyyyyyyyyyyyyyyyyyyyyyyyyyyyyyyyyyxxxxxxxxxxxwwwwwwwvvvvvvvuuuuuutttttsssssrrrrqqqqpppppooonnnnmmmmlllkkkkjjjiiiihhhgggffffeeedddcccbbbaaa-..-
(PID.TID 0000.0001) //    153 -..-aaabbbcccdddeeeffffggghhhiiijjjjkkkllllmmmmnnnooooppppqqqqrrrrrssssstttttuuuuuvvvvvvvwwwwwwwxxxxxxxxxxxyyyyyyyyyyyyyyyyyyyyyyyyyyyyyyyyyyyyyyxxxxxxxxxxxwwwwwwwvvvvvvvuuuuutttttsssssrrrrrqqqqppppoooonnnmmmmllllkkkjjjjiiihhhgggffffeeedddcccbbbaaa-..-
(PID.TID 0000.0001) //    152 -..-aaabbbcccdddeeefffgggghhhiiijjjjkkkllllmmmnnnnooooppppqqqqrrrrssssstttttuuuuuuvvvvvvwwwwwwwxxxxxxxxxxyyyyyyyyyyyyyyyyyyyyyyyyyyyyyyyyyyyyyyyyyyxxxxxxxxxxwwwwwwwvvvvvvuuuuuutttttsssssrrrrqqqqppppoooonnnnmmmllllkkkjjjjiiihhhggggfffeeedddcccbbbaaa-..-
(PID.TID 0000.0001) //    151 -..-aaabbbcccdddeeefffgggghhhiiijjjjkkklllmmmmnnnnooooppppqqqqrrrrssssstttttuuuuuvvvvvvwwwwwwwwxxxxxxxxxyyyyyyyyyyyyyyyyyyyyyyyyyyyyyyyyyyyyyyyyyyyyxxxxxxxxxwwwwwwwwvvvvvvuuuuutttttsssssrrrrqqqqppppoooonnnnmmmmlllkkkjjjjiiihhhggggfffeeedddcccbbbaaa-..-
(PID.TID 0000.0001) //    150 -..-aaabbbcccdddeeefffggghhhhiiijjjkkkklllmmmmnnnnoooppppqqqqrrrrrsssstttttuuuuuuvvvvvvwwwwwwwxxxxxxxxxyyyyyyyyyyyyyyyyzzzzzzzzzzzzzzyyyyyyyyyyyyyyyyxxxxxxxxxwwwwwwwvvvvvvuuuuuutttttssssrrrrrqqqqppppooonnnnmmmmlllkkkkjjjiiihhhhgggfffeeedddcccbbbaaa-..-
(PID.TID 0000.0001) //    149 -..-aaabbbcccdddeeefffggghhhhiiijjjkkkklllmmmmnnnooooppppqqqqrrrrssssstttttuuuuuvvvvvvwwwwwwwxxxxxxxxxyyyyyyyyyyyyyyzzzzzzzzzzzzzzzzzzzzyyyyyyyyyyyyyyxxxxxxxxxwwwwwwwvvvvvvuuuuutttttsssssrrrrqqqqppppoooonnnmmmmlllkkkkjjjiiihhhhgggfffeeedddcccbbbaaa-..-
(PID.TID 0000.0001) //    148 -..-aaabbbcccdddeeefffggghhhhiiijjjkkkllllmmmnnnnooooppppqqqqrrrrsssssttttuuuuuuvvvvvvwwwwwwxxxxxxxxxyyyyyyyyyyyyyzzzzzzzzzzzzzzzzzzzzzzzzyyyyyyyyyyyyyxxxxxxxxxwwwwwwvvvvvvuuuuuuttttsssssrrrrqqqqppppoooonnnnmmmllllkkkjjjiiihhhhgggfffeeedddcccbbbaaa-..-
(PID.TID 0000.0001) //    147 -..-aaabbbcccdddeeefffggghhhiiiijjjkkkllllmmmnnnnooooppppqqqqrrrrsssstttttuuuuuvvvvvvwwwwwwwxxxxxxxxyyyyyyyyyyyyzzzzzzzzzzzzzzzzzzzzzzzzzzzzyyyyyyyyyyyyxxxxxxxxwwwwwwwvvvvvvuuuuutttttssssrrrrqqqqppppoooonnnnmmmllllkkkjjjiiiihhhgggfffeeedddcccbbbaaa-..-
(PID.TID 0000.0001) //    146 -..-aaabbbcccdddeeefffggghhhiiiijjjkkkllllmmmnnnnoooppppqqqqrrrrssssstttttuuuuuvvvvvvwwwwwwxxxxxxxxyyyyyyyyyyyzzzzzzzzzzzzzzzzzzzzzzzzzzzzzzzzyyyyyyyyyyyxxxxxxxxwwwwwwvvvvvvuuuuutttttsssssrrrrqqqqppppooonnnnmmmllllkkkjjjiiiihhhgggfffeeedddcccbbbaaa-..-
(PID.TID 0000.0001) //    145 -..-aaabbbcccdddeeefffggghhhiiijjjjkkklllmmmmnnnnoooppppqqqqrrrrsssssttttuuuuuvvvvvvwwwwwwwxxxxxxxyyyyyyyyyyyzzzzzzzzzzzzzzzzzzzzzzzzzzzzzzzzzzyyyyyyyyyyyxxxxxxxwwwwwwwvvvvvvuuuuuttttsssssrrrrqqqqppppooonnnnmmmmlllkkkjjjjiiihhhgggfffeeedddcccbbbaaa-..-
(PID.TID 0000.0001) //    144 -..-aaabbbcccdddeeefffggghhhiiijjjjkkklllmmmmnnnooooppppqqqqrrrrsssstttttuuuuuvvvvvvwwwwwwxxxxxxxxyyyyyyyyyyzzzzzzzzzzzzzzzzzzzzzzzzzzzzzzzzzzzzyyyyyyyyyyxxxxxxxxwwwwwwvvvvvvuuuuutttttssssrrrrqqqqppppoooonnnmmmmlllkkkjjjjiiihhhgggfffeeedddcccbbbaaa-..-
(PID.TID 0000.0001) //    143 -..-aaabbbcccdddeeefffggghhhiiijjjkkkklllmmmmnnnooooppppqqqqrrrrsssstttttuuuuuvvvvvwwwwwwxxxxxxxxyyyyyyyyyyzzzzzzzzzzzzzzzzzzzzzzzzzzzzzzzzzzzzzzyyyyyyyyyyxxxxxxxxwwwwwwvvvvvuuuuutttttssssrrrrqqqqppppoooonnnmmmmlllkkkkjjjiiihhhgggfffeeedddcccbbbaaa-..-
(PID.TID 0000.0001) //    142 -..-aaabbbcccdddeeefffggghhhiiijjjkkkklllmmmnnnnoooopppqqqqrrrrsssssttttuuuuuvvvvvvwwwwwwxxxxxxxyyyyyyyyyyzzzzzzzzzzzzzzzzzzzzzzzzzzzzzzzzzzzzzzzzyyyyyyyyyyxxxxxxxwwwwwwvvvvvvuuuuuttttsssssrrrrqqqqpppoooonnnnmmmlllkkkkjjjiiihhhgggfffeeedddcccbbbaaa-..-
(PID.TID 0000.0001) //    141 -..-aaabbbcccdddeeefffggghhhiiijjjkkkklllmmmnnnnoooopppqqqqrrrrsssssttttuuuuuvvvvvwwwwwwwxxxxxxxyyyyyyyyyzzzzzzzzzzzzzzzzzzzzzzzzzzzzzzzzzzzzzzzzzzyyyyyyyyyxxxxxxxwwwwwwwvvvvvuuuuuttttsssssrrrrqqqqpppoooonnnnmmmlllkkkkjjjiiihhhgggfffeeedddcccbbbaaa-..-
(PID.TID 0000.0001) //    140 -..-aaabbcccddddeeefffggghhhiiijjjkkkllllmmmnnnnoooppppqqqqrrrrsssstttttuuuuuvvvvvwwwwwwxxxxxxxyyyyyyyyyzzzzzzzzzzzzzzzzzzzzzzzzzzzzzzzzzzzzzzzzzzzzyyyyyyyyyxxxxxxxwwwwwwvvvvvuuuuutttttssssrrrrqqqqppppooonnnnmmmllllkkkjjjiiihhhgggfffeeeddddcccbbaaa-..-
(PID.TID 0000.0001) //    139 -..-aabbbcccdddeeeffffggghhhiiijjjkkkllllmmmnnnnoooppppqqqqrrrrsssstttttuuuuuvvvvvwwwwwwxxxxxxxyyyyyyyyyzzzzzzzzzzzzzzzzz++++++++++zzzzzzzzzzzzzzzzzyyyyyyyyyxxxxxxxwwwwwwvvvvvuuuuutttttssssrrrrqqqqppppooonnnnmmmllllkkkjjjiiihhhgggffffeeedddcccbbbaa-..-
(PID.TID 0000.0001) //    138 -..-aabbbcccdddeeeffffggghhhiiijjjkkkllllmmmnnnnoooppppqqqqrrrrssssttttuuuuuvvvvvvwwwwwxxxxxxxyyyyyyyyyzzzzzzzzzzzzzzzz++++++++++++++zzzzzzzzzzzzzzzzyyyyyyyyyxxxxxxxwwwwwvvvvvvuuuuuttttssssrrrrqqqqppppooonnnnmmmllllkkkjjjiiihhhgggffffeeedddcccbbbaa-..-
(PID.TID 0000.0001) //    137 -..-aabbbcccdddeeefffgggghhhiiijjjkkkllllmmmnnnooooppppqqqqrrrrssssttttuuuuuvvvvvwwwwwwxxxxxxxyyyyyyyyyzzzzzzzzzzzzzz++++++++++++++++++zzzzzzzzzzzzzzyyyyyyyyyxxxxxxxwwwwwwvvvvvuuuuuttttssssrrrrqqqqppppoooonnnmmmllllkkkjjjiiihhhggggfffeeedddcccbbbaa-..-
(PID.TID 0000.0001) //    136 -..-aabbbcccdddeeefffggghhhhiiijjjkkklllmmmmnnnooooppppqqqrrrrsssssttttuuuuuvvvvvwwwwwwxxxxxxxyyyyyyyyzzzzzzzzzzzzzz++++++++++++++++++++zzzzzzzzzzzzzzyyyyyyyyxxxxxxxwwwwwwvvvvvuuuuuttttsssssrrrrqqqppppoooonnnmmmmlllkkkjjjiiihhhhgggfffeeedddcccbbbaa-..-
(PID.TID 0000.0001) //    135 -..-aabbbcccdddeeefffggghhhhiiijjjkkklllmmmmnnnoooopppqqqqrrrrsssstttttuuuuuvvvvvwwwwwwxxxxxxyyyyyyyyyzzzzzzzzzzzzz++++++++++++++++++++++zzzzzzzzzzzzzyyyyyyyyyxxxxxxwwwwwwvvvvvuuuuutttttssssrrrrqqqqpppoooonnnmmmmlllkkkjjjiiihhhhgggfffeeedddcccbbbaa-..-
(PID.TID 0000.0001) //    134 -..-aabbbcccdddeeefffggghhhiiiijjjkkklllmmmmnnnoooopppqqqqrrrrsssstttttuuuuvvvvvvwwwwwxxxxxxxyyyyyyyyzzzzzzzzzzzzz++++++++++++++++++++++++zzzzzzzzzzzzzyyyyyyyyxxxxxxxwwwwwvvvvvvuuuutttttssssrrrrqqqqpppoooonnnmmmmlllkkkjjjiiiihhhgggfffeeedddcccbbbaa-..-
(PID.TID 0000.0001) //    133 a..aaabbbcccdddeeefffggghhhiiiijjjkkklllmmmmnnnoooopppqqqqrrrrsssstttttuuuuvvvvvwwwwwwxxxxxxxyyyyyyyyzzzzzzzzzzzz++++++++++++++++++++++++++zzzzzzzzzzzzyyyyyyyyxxxxxxxwwwwwwvvvvvuuuutttttssssrrrrqqqqpppoooonnnmmmmlllkkkjjjiiiihhhgggfffeeedddcccbbbaaa..a
(PID.TID 0000.0001) //    132 a..aaabbbcccdddeeefffggghhhiiiijjjkkklllmmmmnnnoooopppqqqqrrrrssssttttuuuuuvvvvvwwwwwwxxxxxxxyyyyyyyyzzzzzzzzzzzz++++++++++++++++++++++++++zzzzzzzzzzzzyyyyyyyyxxxxxxxwwwwwwvvvvvuuuuuttttssssrrrrqqqqpppoooonnnmmmmlllkkkjjjiiiihhhgggfffeeedddcccbbbaaa..a
(PID.TID 0000.0001) //    131 a..aaabbbcccdddeeefffggghhhiiiijjjkkklllmmmmnnnoooppppqqqqrrrrssssttttuuuuuvvvvvwwwwwwxxxxxxyyyyyyyyzzzzzzzzzzzz++++++++++++++++++++++++++++zzzzzzzzzzzzyyyyyyyyxxxxxxwwwwwwvvvvvuuuuuttttssssrrrrqqqqppppooonnnmmmmlllkkkjjjiiiihhhgggfffeeedddcccbbbaaa..a
(PID.TID 0000.0001) //    130 a..aaabbbcccdddeeefffggghhhiiijjjjkkklllmmmnnnnoooppppqqqqrrrrssssttttuuuuuvvvvvwwwwwwxxxxxxyyyyyyyyzzzzzzzzzzzz++++++++++++++++++++++++++++zzzzzzzzzzzzyyyyyyyyxxxxxxwwwwwwvvvvvuuuuuttttssssrrrrqqqqppppooonnnnmmmlllkkkjjjjiiihhhgggfffeeedddcccbbbaaa..a
(PID.TID 0000.0001) //    129 a..aaabbbcccdddeeefffggghhhiiijjjjkkklllmmmnnnnoooppppqqqqrrrrssssttttuuuuuvvvvvwwwwwwxxxxxxyyyyyyyyzzzzzzzzzzz++++++++++++++++++++++++++++++zzzzzzzzzzzyyyyyyyyxxxxxxwwwwwwvvvvvuuuuuttttssssrrrrqqqqppppooonnnnmmmlllkkkjjjjiiihhhgggfffeeedddcccbbbaaa..a
(PID.TID 0000.0001) //    128 a..aaabbbcccdddeeefffggghhhiiijjjjkkklllmmmnnnnoooppppqqqqrrrrssssttttuuuuuvvvvvwwwwwxxxxxxxyyyyyyyyzzzzzzzzzzz++++++++++++++++++++++++++++++zzzzzzzzzzzyyyyyyyyxxxxxxxwwwwwvvvvvuuuuuttttssssrrrrqqqqppppooonnnnmmmlllkkkjjjjiiihhhgggfffeeedddcccbbbaaa..a
(PID.TID 0000.0001) //    127 a..aaabbbcccdddeeefffggghhhiiijjjjkkklllmmmnnnnoooppppqqqqrrrrssssttttuuuuuvvvvvwwwwwxxxxxxxyyyyyyyyzzzzzzzzzzz++++++++++++++++++++++++++++++zzzzzzzzzzzyyyyyyyyxxxxxxxwwwwwvvvvvuuuuuttttssssrrrrqqqqppppooonnnnmmmlllkkkjjjjiiihhhgggfffeeedddcccbbbaaa..a
(PID.TID 0000.0001) //    126 a..aaabbbcccdddeeefffggghhhiiijjjjkkklllmmmnnnnoooppppqqqqrrrrssssttttuuuuuvvvvvwwwwwxxxxxxxyyyyyyyyzzzzzzzzzzz++++++++++++++++++++++++++++++zzzzzzzzzzzyyyyyyyyxxxxxxxwwwwwvvvvvuuuuuttttssssrrrrqqqqppppooonnnnmmmlllkkkjjjjiiihhhgggfffeeedddcccbbbaaa..a
(PID.TID 0000.0001) //    125 a..aaabbbcccdddeeefffggghhhiiijjjjkkklllmmmnnnnoooppppqqqqrrrrssssttttuuuuuvvvvvwwwwwxxxxxxxyyyyyyyyzzzzzzzzzzz++++++++++++++++++++++++++++++zzzzzzzzzzzyyyyyyyyxxxxxxxwwwwwvvvvvuuuuuttttssssrrrrqqqqppppooonnnnmmmlllkkkjjjjiiihhhgggfffeeedddcccbbbaaa..a
(PID.TID 0000.0001) //    124 a..aaabbbcccdddeeefffggghhhiiijjjjkkklllmmmnnnnoooppppqqqqrrrrssssttttuuuuuvvvvvwwwwwxxxxxxxyyyyyyyyzzzzzzzzzzz++++++++++++++++++++++++++++++zzzzzzzzzzzyyyyyyyyxxxxxxxwwwwwvvvvvuuuuuttttssssrrrrqqqqppppooonnnnmmmlllkkkjjjjiiihhhgggfffeeedddcccbbbaaa..a
(PID.TID 0000.0001) //    123 a..aaabbbcccdddeeefffggghhhiiijjjjkkklllmmmnnnnoooppppqqqqrrrrssssttttuuuuuvvvvvwwwwwxxxxxxxyyyyyyyyzzzzzzzzzzz++++++++++++++++++++++++++++++zzzzzzzzzzzyyyyyyyyxxxxxxxwwwwwvvvvvuuuuuttttssssrrrrqqqqppppooonnnnmmmlllkkkjjjjiiihhhgggfffeeedddcccbbbaaa..a
(PID.TID 0000.0001) //    122 a..aaabbbcccdddeeefffggghhhiiijjjjkkklllmmmnnnnoooppppqqqqrrrrssssttttuuuuuvvvvvwwwwwxxxxxxxyyyyyyyyzzzzzzzzzzz++++++++++++++++++++++++++++++zzzzzzzzzzzyyyyyyyyxxxxxxxwwwwwvvvvvuuuuuttttssssrrrrqqqqppppooonnnnmmmlllkkkjjjjiiihhhgggfffeeedddcccbbbaaa..a
(PID.TID 0000.0001) //    121 a..aaabbbcccdddeeefffggghhhiiijjjjkkklllmmmnnnnoooppppqqqqrrrrssssttttuuuuuvvvvvwwwwwxxxxxxxyyyyyyyyzzzzzzzzzzz++++++++++++++++++++++++++++++zzzzzzzzzzzyyyyyyyyxxxxxxxwwwwwvvvvvuuuuuttttssssrrrrqqqqppppooonnnnmmmlllkkkjjjjiiihhhgggfffeeedddcccbbbaaa..a
(PID.TID 0000.0001) //    120 a..aaabbbcccdddeeefffggghhhiiijjjjkkklllmmmnnnnoooppppqqqqrrrrssssttttuuuuuvvvvvwwwwwwxxxxxxyyyyyyyyzzzzzzzzzzz++++++++++++++++++++++++++++++zzzzzzzzzzzyyyyyyyyxxxxxxwwwwwwvvvvvuuuuuttttssssrrrrqqqqppppooonnnnmmmlllkkkjjjjiiihhhgggfffeeedddcccbbbaaa..a
(PID.TID 0000.0001) //    119 a..aaabbbcccdddeeefffggghhhiiijjjjkkklllmmmnnnnoooppppqqqqrrrrssssttttuuuuuvvvvvwwwwwwxxxxxxyyyyyyyyzzzzzzzzzzzz++++++++++++++++++++++++++++zzzzzzzzzzzzyyyyyyyyxxxxxxwwwwwwvvvvvuuuuuttttssssrrrrqqqqppppooonnnnmmmlllkkkjjjjiiihhhgggfffeeedddcccbbbaaa..a
(PID.TID 0000.0001) //    118 a..aaabbbcccdddeeefffggghhhiiiijjjkkklllmmmmnnnoooppppqqqqrrrrssssttttuuuuuvvvvvwwwwwwxxxxxxyyyyyyyyzzzzzzzzzzzz++++++++++++++++++++++++++++zzzzzzzzzzzzyyyyyyyyxxxxxxwwwwwwvvvvvuuuuuttttssssrrrrqqqqppppooonnnmmmmlllkkkjjjiiiihhhgggfffeeedddcccbbbaaa..a
(PID.TID 0000.0001) //    117 a..aaabbbcccdddeeefffggghhhiiiijjjkkklllmmmmnnnoooopppqqqqrrrrssssttttuuuuuvvvvvwwwwwwxxxxxxxyyyyyyyyzzzzzzzzzzzz++++++++++++++++++++++++++zzzzzzzzzzzzyyyyyyyyxxxxxxxwwwwwwvvvvvuuuuuttttssssrrrrqqqqpppoooonnnmmmmlllkkkjjjiiiihhhgggfffeeedddcccbbbaaa..a
(PID.TID 0000.0001) //    116 a..aaabbbcccdddeeefffggghhhiiiijjjkkklllmmmmnnnoooopppqqqqrrrrsssstttttuuuuvvvvvwwwwwwxxxxxxxyyyyyyyyzzzzzzzzzzzz++++++++++++++++++++++++++zzzzzzzzzzzzyyyyyyyyxxxxxxxwwwwwwvvvvvuuuutttttssssrrrrqqqqpppoooonnnmmmmlllkkkjjjiiiihhhgggfffeeedddcccbbbaaa..a
(PID.TID 0000.0001) //    115 -..-aabbbcccdddeeefffggghhhiiiijjjkkklllmmmmnnnoooopppqqqqrrrrsssstttttuuuuvvvvvvwwwwwxxxxxxxyyyyyyyyzzzzzzzzzzzzz++++++++++++++++++++++++zzzzzzzzzzzzzyyyyyyyyxxxxxxxwwwwwvvvvvvuuuutttttssssrrrrqqqqpppoooonnnmmmmlllkkkjjjiiiihhhgggfffeeedddcccbbbaa-..-
(PID.TID 0000.0001) //    114 -..-aabbbcccdddeeefffggghhhhiiijjjkkklllmmmmnnnoooopppqqqqrrrrsssstttttuuuuuvvvvvwwwwwwxxxxxxyyyyyyyyyzzzzzzzzzzzzz++++++++++++++++++++++zzzzzzzzzzzzzyyyyyyyyyxxxxxxwwwwwwvvvvvuuuuutttttssssrrrrqqqqpppoooonnnmmmmlllkkkjjjiiihhhhgggfffeeedddcccbbbaa-..-
(PID.TID 0000.0001) //    113 -..-aabbbcccdddeeefffggghhhhiiijjjkkklllmmmmnnnooooppppqqqrrrrsssssttttuuuuuvvvvvwwwwwwxxxxxxxyyyyyyyyzzzzzzzzzzzzzz++++++++++++++++++++zzzzzzzzzzzzzzyyyyyyyyxxxxxxxwwwwwwvvvvvuuuuuttttsssssrrrrqqqppppoooonnnmmmmlllkkkjjjiiihhhhgggfffeeedddcccbbbaa-..-
(PID.TID 0000.0001) //    112 -..-aabbbcccdddeeefffgggghhhiiijjjkkkllllmmmnnnooooppppqqqqrrrrssssttttuuuuuvvvvvwwwwwwxxxxxxxyyyyyyyyyzzzzzzzzzzzzzz++++++++++++++++++zzzzzzzzzzzzzzyyyyyyyyyxxxxxxxwwwwwwvvvvvuuuuuttttssssrrrrqqqqppppoooonnnmmmllllkkkjjjiiihhhggggfffeeedddcccbbbaa-..-
(PID.TID 0000.0001) //    111 -..-aabbbcccdddeeeffffggghhhiiijjjkkkllllmmmnnnnoooppppqqqqrrrrssssttttuuuuuvvvvvvwwwwwxxxxxxxyyyyyyyyyzzzzzzzzzzzzzzzz++++++++++++++zzzzzzzzzzzzzzzzyyyyyyyyyxxxxxxxwwwwwvvvvvvuuuuuttttssssrrrrqqqqppppooonnnnmmmllllkkkjjjiiihhhgggffffeeedddcccbbbaa-..-
(PID.TID 0000.0001) //    110 -..-aabbbcccdddeeeffffggghhhiiijjjkkkllllmmmnnnnoooppppqqqqrrrrsssstttttuuuuuvvvvvwwwwwwxxxxxxxyyyyyyyyyzzzzzzzzzzzzzzzzz++++++++++zzzzzzzzzzzzzzzzzyyyyyyyyyxxxxxxxwwwwwwvvvvvuuuuutttttssssrrrrqqqqppppooonnnnmmmllllkkkjjjiiihhhgggffffeeedddcccbbbaa-..-
(PID.TID 0000.0001) //    109 -..-aaabbcccddddeeefffggghhhiiijjjkkkllllmmmnnnnoooppppqqqqrrrrsssstttttuuuuuvvvvvwwwwwwxxxxxxxyyyyyyyyyzzzzzzzzzzzzzzzzzzzzzzzzzzzzzzzzzzzzzzzzzzzzyyyyyyyyyxxxxxxxwwwwwwvvvvvuuuuutttttssssrrrrqqqqppppooonnnnmmmllllkkkjjjiiihhhgggfffeeeddddcccbbaaa-..-
(PID.TID 0000.0001) //    108 -..-aaabbbcccdddeeefffggghhhiiijjjkkkklllmmmnnnnoooopppqqqqrrrrsssssttttuuuuuvvvvvwwwwwwwxxxxxxxyyyyyyyyyzzzzzzzzzzzzzzzzzzzzzzzzzzzzzzzzzzzzzzzzzzyyyyyyyyyxxxxxxxwwwwwwwvvvvvuuuuuttttsssssrrrrqqqqpppoooonnnnmmmlllkkkkjjjiiihhhgggfffeeedddcccbbbaaa-..-
(PID.TID 0000.0001) //    107 -..-aaabbbcccdddeeefffggghhhiiijjjkkkklllmmmnnnnoooopppqqqqrrrrsssssttttuuuuuvvvvvvwwwwwwxxxxxxxyyyyyyyyyyzzzzzzzzzzzzzzzzzzzzzzzzzzzzzzzzzzzzzzzzyyyyyyyyyyxxxxxxxwwwwwwvvvvvvuuuuuttttsssssrrrrqqqqpppoooonnnnmmmlllkkkkjjjiiihhhgggfffeeedddcccbbbaaa-..-
(PID.TID 0000.0001) //    106 -..-aaabbbcccdddeeefffggghhhiiijjjkkkklllmmmmnnnooooppppqqqqrrrrsssstttttuuuuuvvvvvwwwwwwxxxxxxxxyyyyyyyyyyzzzzzzzzzzzzzzzzzzzzzzzzzzzzzzzzzzzzzzyyyyyyyyyyxxxxxxxxwwwwwwvvvvvuuuuutttttssssrrrrqqqqppppoooonnnmmmmlllkkkkjjjiiihhhgggfffeeedddcccbbbaaa-..-
(PID.TID 0000.0001) //    105 -..-aaabbbcccdddeeefffggghhhiiijjjjkkklllmmmmnnnooooppppqqqqrrrrsssstttttuuuuuvvvvvvwwwwwwxxxxxxxxyyyyyyyyyyzzzzzzzzzzzzzzzzzzzzzzzzzzzzzzzzzzzzyyyyyyyyyyxxxxxxxxwwwwwwvvvvvvuuuuutttttssssrrrrqqqqppppoooonnnmmmmlllkkkjjjjiiihhhgggfffeeedddcccbbbaaa-..-
(PID.TID 0000.0001) //    104 -..-aaabbbcccdddeeefffggghhhiiijjjjkkklllmmmmnnnnoooppppqqqqrrrrsssssttttuuuuuvvvvvvwwwwwwwxxxxxxxyyyyyyyyyyyzzzzzzzzzzzzzzzzzzzzzzzzzzzzzzzzzzyyyyyyyyyyyxxxxxxxwwwwwwwvvvvvvuuuuuttttsssssrrrrqqqqppppooonnnnmmmmlllkkkjjjjiiihhhgggfffeeedddcccbbbaaa-..-
(PID.TID 0000.0001) //    103 -..-aaabbbcccdddeeefffggghhhiiiijjjkkkllllmmmnnnnoooppppqqqqrrrrssssstttttuuuuuvvvvvvwwwwwwxxxxxxxxyyyyyyyyyyyzzzzzzzzzzzzzzzzzzzzzzzzzzzzzzzzyyyyyyyyyyyxxxxxxxxwwwwwwvvvvvvuuuuutttttsssssrrrrqqqqppppooonnnnmmmllllkkkjjjiiiihhhgggfffeeedddcccbbbaaa-..-
(PID.TID 0000.0001) //    102 -..-aaabbbcccdddeeefffggghhhiiiijjjkkkllllmmmnnnnooooppppqqqqrrrrsssstttttuuuuuvvvvvvwwwwwwwxxxxxxxxyyyyyyyyyyyyzzzzzzzzzzzzzzzzzzzzzzzzzzzzyyyyyyyyyyyyxxxxxxxxwwwwwwwvvvvvvuuuuutttttssssrrrrqqqqppppoooonnnnmmmllllkkkjjjiiiihhhgggfffeeedddcccbbbaaa-..-
(PID.TID 0000.0001) //    101 -..-aaabbbcccdddeeefffggghhhhiiijjjkkkllllmmmnnnnooooppppqqqqrrrrsssssttttuuuuuuvvvvvvwwwwwwxxxxxxxxxyyyyyyyyyyyyyzzzzzzzzzzzzzzzzzzzzzzzzyyyyyyyyyyyyyxxxxxxxxxwwwwwwvvvvvvuuuuuuttttsssssrrrrqqqqppppoooonnnnmmmllllkkkjjjiiihhhhgggfffeeedddcccbbbaaa-..-
(PID.TID 0000.0001) //    100 -..-aaabbbcccdddeeefffggghhhhiiijjjkkkklllmmmmnnnooooppppqqqqrrrrssssstttttuuuuuvvvvvvwwwwwwwxxxxxxxxxyyyyyyyyyyyyyyzzzzzzzzzzzzzzzzzzzzyyyyyyyyyyyyyyxxxxxxxxxwwwwwwwvvvvvvuuuuutttttsssssrrrrqqqqppppoooonnnmmmmlllkkkkjjjiiihhhhgggfffeeedddcccbbbaaa-..-
(PID.TID 0000.0001) //     99 -..-aaabbbcccdddeeefffggghhhhiiijjjkkkklllmmmmnnnnoooppppqqqqrrrrrsssstttttuuuuuuvvvvvvwwwwwwwxxxxxxxxxyyyyyyyyyyyyyyyyzzzzzzzzzzzzzzyyyyyyyyyyyyyyyyxxxxxxxxxwwwwwwwvvvvvvuuuuuutttttssssrrrrrqqqqppppooonnnnmmmmlllkkkkjjjiiihhhhgggfffeeedddcccbbbaaa-..-
(PID.TID 0000.0001) //     98 -..-aaabbbcccdddeeefffgggghhhiiijjjjkkklllmmmmnnnnooooppppqqqqrrrrssssstttttuuuuuvvvvvvwwwwwwwwxxxxxxxxxyyyyyyyyyyyyyyyyyyyyyyyyyyyyyyyyyyyyyyyyyyyyxxxxxxxxxwwwwwwwwvvvvvvuuuuutttttsssssrrrrqqqqppppoooonnnnmmmmlllkkkjjjjiiihhhggggfffeeedddcccbbbaaa-..-
(PID.TID 0000.0001) //     97 -..-aaabbbcccdddeeefffgggghhhiiijjjjkkkllllmmmnnnnooooppppqqqqrrrrssssstttttuuuuuuvvvvvvwwwwwwwxxxxxxxxxxyyyyyyyyyyyyyyyyyyyyyyyyyyyyyyyyyyyyyyyyyyxxxxxxxxxxwwwwwwwvvvvvvuuuuuutttttsssssrrrrqqqqppppoooonnnnmmmllllkkkjjjjiiihhhggggfffeeedddcccbbbaaa-..-
(PID.TID 0000.0001) //     96 -..-aaabbbcccdddeeeffffggghhhiiijjjjkkkllllmmmmnnnooooppppqqqqrrrrrssssstttttuuuuuvvvvvvvwwwwwwwxxxxxxxxxxxyyyyyyyyyyyyyyyyyyyyyyyyyyyyyyyyyyyyyyxxxxxxxxxxxwwwwwwwvvvvvvvuuuuutttttsssssrrrrrqqqqppppoooonnnmmmmllllkkkjjjjiiihhhgggffffeeedddcccbbbaaa-..-
(PID.TID 0000.0001) //     95 -..-aaabbbcccdddeeeffffggghhhiiiijjjkkkklllmmmmnnnnooopppppqqqqrrrrssssstttttuuuuuuvvvvvvvwwwwwwwxxxxxxxxxxxyyyyyyyyyyyyyyyyyyyyyyyyyyyyyyyyyyyyxxxxxxxxxxxwwwwwwwvvvvvvvuuuuuutttttsssssrrrrqqqqpppppooonnnnmmmmlllkkkkjjjiiiihhhgggffffeeedddcccbbbaaa-..-
(PID.TID 0000.0001) //     94 -..-aaabbbcccdddeeeefffggghhhiiiijjjkkkklllmmmmnnnnooooppppqqqqrrrrrssssstttttuuuuuuvvvvvvwwwwwwwwxxxxxxxxxxxxyyyyyyyyyyyyyyyyyyyyyyyyyyyyyyyyxxxxxxxxxxxxwwwwwwwwvvvvvvuuuuuutttttsssssrrrrrqqqqppppoooonnnnmmmmlllkkkkjjjiiiihhhgggfffeeeedddcccbbbaaa-..-
(PID.TID 0000.0001) //     93 -..-aaabbbcccdddeeeefffggghhhhiiijjjkkkkllllmmmnnnnooooppppqqqqqrrrrssssstttttuuuuuuvvvvvvvwwwwwwwwwxxxxxxxxxxxxyyyyyyyyyyyyyyyyyyyyyyyyyyyyxxxxxxxxxxxxwwwwwwwwwvvvvvvvuuuuuutttttsssssrrrrqqqqqppppoooonnnnmmmllllkkkkjjjiiihhhhgggfffeeeedddcccbbbaaa-..-
(PID.TID 0000.0001) //     92 -..-aaabbbcccdddeeeefffggghhhhiiijjjjkkkllllmmmmnnnoooopppppqqqqrrrrrssssstttttuuuuuuvvvvvvvwwwwwwwwwxxxxxxxxxxxxxxyyyyyyyyyyyyyyyyyyyyyyxxxxxxxxxxxxxxwwwwwwwwwvvvvvvvuuuuuutttttsssssrrrrrqqqqpppppoooonnnmmmmllllkkkjjjjiiihhhhgggfffeeeedddcccbbbaaa-..-
(PID.TID 0000.0001) //     91 -..-aaabbbcccddddeeefffggghhhhiiijjjjkkkllllmmmmnnnnooooppppqqqqrrrrrsssssttttttuuuuuuvvvvvvvwwwwwwwwwxxxxxxxxxxxxxxxxxyyyyyyyyyyyyyyxxxxxxxxxxxxxxxxxwwwwwwwwwvvvvvvvuuuuuuttttttsssssrrrrrqqqqppppoooonnnnmmmmllllkkkjjjjiiihhhhgggfffeeeddddcccbbbaaa-..-
(PID.TID 0000.0001) //     90 -..-aaabbbcccddddeeefffgggghhhiiiijjjkkkklllmmmmnnnnooooppppqqqqqrrrrrssssstttttuuuuuuuvvvvvvvwwwwwwwwwwxxxxxxxxxxxxxxxxxxxxxxxxxxxxxxxxxxxxxxxxxxxxwwwwwwwwwwvvvvvvvuuuuuuutttttsssssrrrrrqqqqqppppoooonnnnmmmmlllkkkkjjjiiiihhhggggfffeeeddddcccbbbaaa-..-
(PID.TID 0000.0001) //     89 -..-aaabbbcccddddeeefffgggghhhiiiijjjkkkkllllmmmnnnnoooooppppqqqqrrrrrsssssttttttuuuuuuuvvvvvvvwwwwwwwwwwwxxxxxxxxxxxxxxxxxxxxxxxxxxxxxxxxxxxxxxxxwwwwwwwwwwwvvvvvvvuuuuuuuttttttsssssrrrrrqqqqppppooooonnnnmmmllllkkkkjjjiiiihhhggggfffeeeddddcccbbbaaa-..-
(PID.TID 0000.0001) //     88 -..-aaabbbccccdddeeeffffggghhhiiiijjjjkkkllllmmmmnnnnooooppppqqqqqrrrrrsssssttttttuuuuuuuvvvvvvvvwwwwwwwwwwxxxxxxxxxxxxxxxxxxxxxxxxxxxxxxxxxxxxxxwwwwwwwwwwvvvvvvvvuuuuuuuttttttsssssrrrrrqqqqqppppoooonnnnmmmmllllkkkjjjjiiiihhhgggffffeeedddccccbbbaaa-..-
(PID.TID 0000.0001) //     87 -..-aaabbbccccdddeeeffffggghhhhiiijjjjkkkllllmmmmnnnnoooopppppqqqqrrrrrssssssttttttuuuuuuuvvvvvvvvwwwwwwwwwwwwxxxxxxxxxxxxxxxxxxxxxxxxxxxxxxxxwwwwwwwwwwwwvvvvvvvvuuuuuuuttttttssssssrrrrrqqqqpppppoooonnnnmmmmllllkkkjjjjiiihhhhgggffffeeedddccccbbbaaa-..-
(PID.TID 0000.0001) //     86 -..-aaabbbccccdddeeeffffggghhhhiiijjjjkkkkllllmmmmnnnnooooppppqqqqqrrrrrssssssttttttuuuuuuuvvvvvvvvwwwwwwwwwwwwwxxxxxxxxxxxxxxxxxxxxxxxxxxxxwwwwwwwwwwwwwvvvvvvvvuuuuuuuttttttssssssrrrrrqqqqqppppoooonnnnmmmmllllkkkkjjjjiiihhhhgggffffeeedddccccbbbaaa-..-
(PID.TID 0000.0001) //     85 -..-aaabbbccccdddeeeefffggghhhhiiiijjjkkkkllllmmmmnnnnoooopppppqqqqqrrrrrssssstttttttuuuuuuuvvvvvvvvvwwwwwwwwwwwwwwwxxxxxxxxxxxxxxxxxxxxwwwwwwwwwwwwwwwvvvvvvvvvuuuuuuutttttttsssssrrrrrqqqqqpppppoooonnnnmmmmllllkkkkjjjiiiihhhhgggfffeeeedddccccbbbaaa-..-
(PID.TID 0000.0001) //     84 -..-aaabbbccccdddeeeefffgggghhhiiiijjjjkkkllllmmmmnnnnoooooppppqqqqqrrrrrsssssstttttttuuuuuuuvvvvvvvvvvwwwwwwwwwwwwwwwwwwwxxxxxxxxwwwwwwwwwwwwwwwwwwwvvvvvvvvvvuuuuuuutttttttssssssrrrrrqqqqqppppooooonnnnmmmmllllkkkjjjjiiiihhhggggfffeeeedddccccbbbaaa-..-
(PID.TID 0000.0001) //     83 -..-aaabbbccccdddeeeefffgggghhhiiiijjjjkkkkllllmmmmnnnnoooopppppqqqqqrrrrrsssssstttttttuuuuuuuvvvvvvvvvvvwwwwwwwwwwwwwwwwwwwwwwwwwwwwwwwwwwwwwwwwwwvvvvvvvvvvvuuuuuuutttttttssssssrrrrrqqqqqpppppoooonnnnmmmmllllkkkkjjjjiiiihhhggggfffeeeedddccccbbbaaa-..-
(PID.TID 0000.0001) //     82 -..-aaabbbbcccdddeeeefffgggghhhhiiijjjjkkkkllllmmmmnnnnooooopppppqqqqqrrrrrsssssstttttttuuuuuuuuvvvvvvvvvvvwwwwwwwwwwwwwwwwwwwwwwwwwwwwwwwwwwwwwwvvvvvvvvvvvuuuuuuuutttttttssssssrrrrrqqqqqpppppooooonnnnmmmmllllkkkkjjjjiiihhhhggggfffeeeedddcccbbbbaaa-..-
(PID.TID 0000.0001) //     81 -..-aaabbbbcccddddeeeffffggghhhhiiiijjjkkkkllllmmmmmnnnnoooopppppqqqqqrrrrrrsssssstttttttuuuuuuuuvvvvvvvvvvvvwwwwwwwwwwwwwwwwwwwwwwwwwwwwwwwwwwvvvvvvvvvvvvuuuuuuuutttttttssssssrrrrrrqqqqqpppppoooonnnnmmmmmllllkkkkjjjiiiihhhhgggffffeeeddddcccbbbbaaa-..-
(PID.TID 0000.0001) //     80 -..-aaabbbbcccddddeeeffffggghhhhiiiijjjjkkkkllllmmmmnnnnooooopppppqqqqqrrrrrrsssssstttttttuuuuuuuuuvvvvvvvvvvvvvvwwwwwwwwwwwwwwwwwwwwwwwwwwvvvvvvvvvvvvvvuuuuuuuuutttttttssssssrrrrrrqqqqqpppppooooonnnnmmmmllllkkkkjjjjiiiihhhhgggffffeeeddddcccbbbbaaa-..-
(PID.TID 0000.0001) //     79 -..-aaabbbbcccddddeeeffffgggghhhiiiijjjjkkkkllllmmmmnnnnnoooooppppqqqqqqrrrrrrsssssstttttttuuuuuuuuuuvvvvvvvvvvvvvvvvwwwwwwwwwwwwwwwwwwvvvvvvvvvvvvvvvvuuuuuuuuuutttttttssssssrrrrrrqqqqqqppppooooonnnnnmmmmllllkkkkjjjjiiiihhhggggffffeeeddddcccbbbbaaa-..-
(PID.TID 0000.0001) //     78 -..-aaabbbbcccddddeeeefffgggghhhhiiiijjjkkkklllllmmmmnnnnooooopppppqqqqqqrrrrrsssssssttttttttuuuuuuuuuuvvvvvvvvvvvvvvvvvvvvvvvvvvvvvvvvvvvvvvvvvvvvvvuuuuuuuuuuttttttttsssssssrrrrrqqqqqqpppppooooonnnnmmmmlllllkkkkjjjiiiihhhhggggfffeeeeddddcccbbbbaaa-..-
(PID.TID 0000.0001) //     77 -..-aaabbbbcccddddeeeefffgggghhhhiiiijjjjkkkkllllmmmmnnnnnooooopppppqqqqqrrrrrrsssssssttttttttuuuuuuuuuuuvvvvvvvvvvvvvvvvvvvvvvvvvvvvvvvvvvvvvvvvvvuuuuuuuuuuuttttttttsssssssrrrrrrqqqqqpppppooooonnnnnmmmmllllkkkkjjjjiiiihhhhggggfffeeeeddddcccbbbbaaa-..-
(PID.TID 0000.0001) //     76 -..-aaabbbbccccdddeeeeffffggghhhhiiiijjjjkkkklllllmmmmnnnnnooooopppppqqqqqrrrrrrrsssssssttttttttuuuuuuuuuuuuvvvvvvvvvvvvvvvvvvvvvvvvvvvvvvvvvvvvuuuuuuuuuuuuttttttttsssssssrrrrrrrqqqqqpppppooooonnnnnmmmmlllllkkkkjjjjiiiihhhhgggffffeeeedddccccbbbbaaa-..-
(PID.TID 0000.0001) //     75 -..-aaabbbbccccdddeeeeffffgggghhhhiiiijjjjkkkkllllmmmmmnnnnoooooppppppqqqqqrrrrrrrssssssstttttttttuuuuuuuuuuuuuuvvvvvvvvvvvvvvvvvvvvvvvvvvvvuuuuuuuuuuuuuutttttttttsssssssrrrrrrrqqqqqppppppooooonnnnmmmmmllllkkkkjjjjiiiihhhhggggffffeeeedddccccbbbbaaa-..-
(PID.TID 0000.0001) //     74 -..-aaaabbbccccddddeeeffffgggghhhhiiiijjjjkkkklllllmmmmnnnnnooooopppppqqqqqqrrrrrrrsssssssttttttttttuuuuuuuuuuuuuuuuvvvvvvvvvvvvvvvvvvvvuuuuuuuuuuuuuuuuttttttttttsssssssrrrrrrrqqqqqqpppppooooonnnnnmmmmlllllkkkkjjjjiiiihhhhggggffffeeeddddccccbbbaaaa-..-
(PID.TID 0000.0001) //     73 -..-aaaabbbccccddddeeeffffgggghhhhiiiijjjjkkkkkllllmmmmmnnnnnooooopppppqqqqqqrrrrrrrssssssssttttttttttuuuuuuuuuuuuuuuuuuuuuuuuuuuuuuuuuuuuuuuuuuuuuuuuttttttttttssssssssrrrrrrrqqqqqqpppppooooonnnnnmmmmmllllkkkkkjjjjiiiihhhhggggffffeeeddddccccbbbaaaa-..-
(PID.TID 0000.0001) //     72 -..-aaaabbbccccddddeeeeffffgggghhhhiiiijjjjkkkklllllmmmmnnnnnoooooopppppqqqqqqrrrrrrrssssssssstttttttttttuuuuuuuuuuuuuuuuuuuuuuuuuuuuuuuuuuuuuuuuuutttttttttttsssssssssrrrrrrrqqqqqqpppppoooooonnnnnmmmmlllllkkkkjjjjiiiihhhhggggffffeeeeddddccccbbbaaaa-..-
(PID.TID 0000.0001) //     71 -..-aaaabbbccccddddeeeeffffgggghhhhiiiijjjjkkkkkllllmmmmmnnnnnoooooppppppqqqqqqqrrrrrrrsssssssssttttttttttttuuuuuuuuuuuuuuuuuuuuuuuuuuuuuuuuuuuuttttttttttttsssssssssrrrrrrrqqqqqqqppppppooooonnnnnmmmmmllllkkkkkjjjjiiiihhhhggggffffeeeeddddccccbbbaaaa-..-
(PID.TID 0000.0001) //     70 -..-aaaabbbbcccddddeeeeffffgggghhhhiiiijjjjjkkkklllllmmmmmnnnnnoooooppppppqqqqqqqrrrrrrrssssssssssttttttttttttttuuuuuuuuuuuuuuuuuuuuuuuuuuuuttttttttttttttssssssssssrrrrrrrqqqqqqqppppppooooonnnnnmmmmmlllllkkkkjjjjjiiiihhhhggggffffeeeeddddcccbbbbaaaa-..-
(PID.TID 0000.0001) //     69 -..-aaaabbbbccccdddeeeeffffgggghhhhhiiiijjjjkkkkklllllmmmmnnnnnnoooooppppppqqqqqqqrrrrrrrrssssssssssttttttttttttttttttuuuuuuuuuuuuuuuuttttttttttttttttttssssssssssrrrrrrrrqqqqqqqppppppooooonnnnnnmmmmlllllkkkkkjjjjiiiihhhhhggggffffeeeedddccccbbbbaaaa-..-
(PID.TID 0000.0001) //     68 -..-aaaabbbbccccddddeeeeffffgggghhhhiiiijjjjjkkkklllllmmmmmnnnnnnooooopppppppqqqqqqqrrrrrrrrsssssssssssttttttttttttttttttttttttttttttttttttttttttttttsssssssssssrrrrrrrrqqqqqqqpppppppooooonnnnnnmmmmmlllllkkkkjjjjjiiiihhhhggggffffeeeeddddccccbbbbaaaa-..-
(PID.TID 0000.0001) //     67 -..-aaaabbbbccccddddeeeeffffgggghhhhiiiiijjjjkkkkklllllmmmmmnnnnnoooooopppppppqqqqqqqrrrrrrrrrssssssssssssttttttttttttttttttttttttttttttttttttttttssssssssssssrrrrrrrrrqqqqqqqpppppppoooooonnnnnmmmmmlllllkkkkkjjjjiiiiihhhhggggffffeeeeddddccccbbbbaaaa-..-
(PID.TID 0000.0001) //     66 -..-aaaabbbbccccddddeeeeffffggggghhhhiiiijjjjjkkkkklllllmmmmmnnnnnoooooopppppppqqqqqqqqrrrrrrrrrssssssssssssssttttttttttttttttttttttttttttttttssssssssssssssrrrrrrrrrqqqqqqqqpppppppoooooonnnnnmmmmmlllllkkkkkjjjjjiiiihhhhgggggffffeeeeddddccccbbbbaaaa-..-
(PID.TID 0000.0001) //     65 -..-aaaabbbbccccddddeeeefffffgggghhhhiiiiijjjjkkkkklllllmmmmmmnnnnnoooooooppppppqqqqqqqqrrrrrrrrrrsssssssssssssssssttttttttttttttttttttttsssssssssssssssssrrrrrrrrrrqqqqqqqqppppppooooooonnnnnmmmmmmlllllkkkkkjjjjiiiiihhhhggggfffffeeeeddddccccbbbbaaaa-..-
(PID.TID 0000.0001) //     64 -..-aaaabbbbccccddddeeeeeffffgggghhhhhiiiijjjjjkkkkklllllmmmmmmnnnnnooooooopppppppqqqqqqqqrrrrrrrrrrrssssssssssssssssssssssssssssssssssssssssssssssssssrrrrrrrrrrrqqqqqqqqpppppppooooooonnnnnmmmmmmlllllkkkkkjjjjjiiiihhhhhggggffffeeeeeddddccccbbbbaaaa-..-
(PID.TID 0000.0001) //     63 -..-aaaabbbbccccdddddeeeeffffggggghhhhiiiiijjjjjkkkkklllllmmmmmmnnnnnnooooooppppppppqqqqqqqqrrrrrrrrrrrrssssssssssssssssssssssssssssssssssssssssssssrrrrrrrrrrrrqqqqqqqqppppppppoooooonnnnnnmmmmmmlllllkkkkkjjjjjiiiiihhhhgggggffffeeeedddddccccbbbbaaaa-..-
(PID.TID 0000.0001) //     62 -..-aaaabbbbcccccddddeeeefffffgggghhhhhiiiijjjjjkkkkkllllllmmmmmmnnnnnnooooooopppppppqqqqqqqqqqrrrrrrrrrrrrrssssssssssssssssssssssssssssssssssssrrrrrrrrrrrrrqqqqqqqqqqpppppppooooooonnnnnnmmmmmmllllllkkkkkjjjjjiiiihhhhhggggfffffeeeeddddcccccbbbbaaaa-..-
(PID.TID 0000.0001) //     61 -..-aaaabbbbbccccddddeeeeeffffggggghhhhiiiiijjjjjkkkkkllllllmmmmmmnnnnnnoooooooppppppppqqqqqqqqqqrrrrrrrrrrrrrrrrrssssssssssssssssssssssssrrrrrrrrrrrrrrrrrqqqqqqqqqqppppppppooooooonnnnnnmmmmmmllllllkkkkkjjjjjiiiiihhhhgggggffffeeeeeddddccccbbbbbaaaa-..-
(PID.TID 0000.0001) //     60 -..-aaaabbbbbccccddddeeeeeffffggggghhhhhiiiiijjjjjkkkkkllllllmmmmmmnnnnnnooooooooppppppppqqqqqqqqqqqrrrrrrrrrrrrrrrrrrrrrrrrrrrrrrrrrrrrrrrrrrrrrrrrrrrrqqqqqqqqqqqppppppppoooooooonnnnnnmmmmmmllllllkkkkkjjjjjiiiiihhhhhgggggffffeeeeeddddccccbbbbbaaaa-..-
(PID.TID 0000.0001) //     59 -..-aaaaabbbbccccdddddeeeefffffggggghhhhiiiiijjjjjkkkkkkllllllmmmmmmnnnnnnnooooooopppppppppqqqqqqqqqqqqqrrrrrrrrrrrrrrrrrrrrrrrrrrrrrrrrrrrrrrrrrrrrqqqqqqqqqqqqqpppppppppooooooonnnnnnnmmmmmmllllllkkkkkkjjjjjiiiiihhhhgggggfffffeeeedddddccccbbbbaaaaa-..-
(PID.TID 0000.0001) //     58 -..-aaaaabbbbcccccddddeeeeeffffggggghhhhhiiiiijjjjjkkkkkkllllllmmmmmmnnnnnnnooooooooppppppppppqqqqqqqqqqqqqqrrrrrrrrrrrrrrrrrrrrrrrrrrrrrrrrrrrrqqqqqqqqqqqqqqppppppppppoooooooonnnnnnnmmmmmmllllllkkkkkkjjjjjiiiiihhhhhgggggffffeeeeeddddcccccbbbbaaaaa-..-
(PID.TID 0000.0001) //     57 -..-aaaaabbbbcccccddddeeeeefffffggggghhhhhiiiiijjjjjkkkkkkllllllmmmmmmnnnnnnnnoooooooopppppppppppqqqqqqqqqqqqqqqqqrrrrrrrrrrrrrrrrrrrrrrrrqqqqqqqqqqqqqqqqqpppppppppppoooooooonnnnnnnnmmmmmmllllllkkkkkkjjjjjiiiiihhhhhgggggfffffeeeeeddddcccccbbbbaaaaa-..-
(PID.TID 0000.0001) //     56 -..-aaaaabbbbcccccdddddeeeefffffggggghhhhhiiiiijjjjjjkkkkkkllllllmmmmmmmnnnnnnnoooooooooppppppppppppqqqqqqqqqqqqqqqqqqqqqqqqqqqqqqqqqqqqqqqqqqqqqqqqqqqqppppppppppppooooooooonnnnnnnmmmmmmmllllllkkkkkkjjjjjjiiiiihhhhhgggggfffffeeeedddddcccccbbbbaaaaa-..-
(PID.TID 0000.0001) //     55 -..-aaaaabbbbbccccdddddeeeeefffffggggghhhhhiiiiijjjjjjkkkkkkllllllmmmmmmmnnnnnnnnoooooooooopppppppppppppqqqqqqqqqqqqqqqqqqqqqqqqqqqqqqqqqqqqqqqqqqqqpppppppppppppoooooooooonnnnnnnnmmmmmmmllllllkkkkkkjjjjjjiiiiihhhhhgggggfffffeeeeedddddccccbbbbbaaaaa-..-
(PID.TID 0000.0001) //     54 -..-aaaaabbbbbccccdddddeeeeefffffggggghhhhhhiiiiijjjjjjkkkkkklllllllmmmmmmmnnnnnnnnoooooooooopppppppppppppppqqqqqqqqqqqqqqqqqqqqqqqqqqqqqqqqqqqqpppppppppppppppoooooooooonnnnnnnnmmmmmmmlllllllkkkkkkjjjjjjiiiiihhhhhhgggggfffffeeeeedddddccccbbbbbaaaaa-..-
(PID.TID 0000.0001) //     53 -..-aaaaabbbbbcccccdddddeeeeefffffggggghhhhhiiiiiijjjjjjkkkkkklllllllmmmmmmmmnnnnnnnnooooooooooopppppppppppppppppppqqqqqqqqqqqqqqqqqqqqqqpppppppppppppppppppooooooooooonnnnnnnnmmmmmmmmlllllllkkkkkkjjjjjjiiiiiihhhhhgggggfffffeeeeedddddcccccbbbbbaaaaa-..-
(PID.TID 0000.0001) //     52 -..-aaaaabbbbbcccccdddddeeeeefffffgggggghhhhhiiiiiijjjjjjkkkkkkllllllllmmmmmmmnnnnnnnnnnooooooooooooppppppppppppppppppppppppppppppppppppppppppppppppppppoooooooooooonnnnnnnnnnmmmmmmmllllllllkkkkkkjjjjjjiiiiiihhhhhggggggfffffeeeeedddddcccccbbbbbaaaaa-..-
(PID.TID 0000.0001) //     51 -..-aaaaabbbbbcccccdddddeeeeeefffffggggghhhhhhiiiiiijjjjjjkkkkkkklllllllmmmmmmmmnnnnnnnnnnooooooooooooooppppppppppppppppppppppppppppppppppppppppppppoooooooooooooonnnnnnnnnnmmmmmmmmlllllllkkkkkkkjjjjjjiiiiiihhhhhhgggggfffffeeeeeedddddcccccbbbbbaaaaa-..-
(PID.TID 0000.0001) //     50 -..--aaaaabbbbbcccccdddddeeeeefffffgggggghhhhhhiiiiiijjjjjjkkkkkkkllllllllmmmmmmmmmnnnnnnnnnnoooooooooooooooooppppppppppppppppppppppppppppppppooooooooooooooooonnnnnnnnnnmmmmmmmmmllllllllkkkkkkkjjjjjjiiiiiihhhhhhggggggfffffeeeeedddddcccccbbbbbaaaaa--..-
(PID.TID 0000.0001) //     49 -..--aaaaabbbbbcccccdddddeeeeeefffffgggggghhhhhhiiiiiijjjjjjkkkkkkkkllllllllmmmmmmmmmnnnnnnnnnnnnooooooooooooooooooooooppppppppppppppoooooooooooooooooooooonnnnnnnnnnnnmmmmmmmmmllllllllkkkkkkkkjjjjjjiiiiiihhhhhhggggggfffffeeeeeedddddcccccbbbbbaaaaa--..-
(PID.TID 0000.0001) //     48 -..--aaaaabbbbbcccccddddddeeeeeffffffgggggghhhhhhiiiiiijjjjjjjkkkkkkklllllllllmmmmmmmmmmnnnnnnnnnnnnnoooooooooooooooooooooooooooooooooooooooooooooooooonnnnnnnnnnnnnmmmmmmmmmmlllllllllkkkkkkkjjjjjjjiiiiiihhhhhhggggggffffffeeeeeddddddcccccbbbbbaaaaa--..-
(PID.TID 0000.0001) //     47 -..--aaaaabbbbbccccccdddddeeeeeefffffgggggghhhhhhhiiiiiijjjjjjjkkkkkkkklllllllllmmmmmmmmmmnnnnnnnnnnnnnnnnoooooooooooooooooooooooooooooooooooooooonnnnnnnnnnnnnnnnmmmmmmmmmmlllllllllkkkkkkkkjjjjjjjiiiiiihhhhhhhggggggfffffeeeeeedddddccccccbbbbbaaaaa--..-
(PID.TID 0000.0001) //     46 -..--aaaaabbbbbbcccccddddddeeeeeffffffgggggghhhhhhhiiiiiijjjjjjjjkkkkkkkklllllllllmmmmmmmmmmmmnnnnnnnnnnnnnnnnnnnoooooooooooooooooooooooooonnnnnnnnnnnnnnnnnnnmmmmmmmmmmmmlllllllllkkkkkkkkjjjjjjjjiiiiiihhhhhhhggggggffffffeeeeeddddddcccccbbbbbbaaaaa--..-
(PID.TID 0000.0001) //     45 -..--aaaaabbbbbbcccccddddddeeeeeeffffffgggggghhhhhhhiiiiiiijjjjjjjkkkkkkkkkllllllllllmmmmmmmmmmmmmnnnnnnnnnnnnnnnnnnnnnnnnnnnnnnnnnnnnnnnnnnnnnnnnnnnnnnnnmmmmmmmmmmmmmllllllllllkkkkkkkkkjjjjjjjiiiiiiihhhhhhhggggggffffffeeeeeeddddddcccccbbbbbbaaaaa--..-
(PID.TID 0000.0001) //     44 -..--aaaaabbbbbbccccccddddddeeeeeeffffffgggggghhhhhhhiiiiiiijjjjjjjjkkkkkkkkklllllllllllmmmmmmmmmmmmmmnnnnnnnnnnnnnnnnnnnnnnnnnnnnnnnnnnnnnnnnnnnnnnnnmmmmmmmmmmmmmmlllllllllllkkkkkkkkkjjjjjjjjiiiiiiihhhhhhhggggggffffffeeeeeeddddddccccccbbbbbbaaaaa--..-
(PID.TID 0000.0001) //     43 -..--aaaaaabbbbbccccccddddddeeeeeefffffffgggggghhhhhhhiiiiiiiijjjjjjjjkkkkkkkkkllllllllllllmmmmmmmmmmmmmmmmmnnnnnnnnnnnnnnnnnnnnnnnnnnnnnnnnnnnnmmmmmmmmmmmmmmmmmllllllllllllkkkkkkkkkjjjjjjjjiiiiiiiihhhhhhhggggggfffffffeeeeeeddddddccccccbbbbbaaaaaa--..-
(PID.TID 0000.0001) //     42 -..--aaaaaabbbbbbccccccddddddeeeeeefffffffgggggghhhhhhhhiiiiiiijjjjjjjjjkkkkkkkkkklllllllllllllmmmmmmmmmmmmmmmmmmmmmmmmmnnnnnnnnnnnnmmmmmmmmmmmmmmmmmmmmmmmmmlllllllllllllkkkkkkkkkkjjjjjjjjjiiiiiiihhhhhhhhggggggfffffffeeeeeeddddddccccccbbbbbbaaaaaa--..-
(PID.TID 0000.0001) //     41 -..--aaaaaabbbbbbccccccddddddeeeeeeefffffffggggggghhhhhhhiiiiiiiijjjjjjjjjkkkkkkkkkkkllllllllllllllmmmmmmmmmmmmmmmmmmmmmmmmmmmmmmmmmmmmmmmmmmmmmmmmmmmmmmllllllllllllllkkkkkkkkkkkjjjjjjjjjiiiiiiiihhhhhhhgggggggfffffffeeeeeeeddddddccccccbbbbbbaaaaaa--..-
(PID.TID 0000.0001) //     40 -..--aaaaaabbbbbbcccccccddddddeeeeeeefffffffggggggghhhhhhhhiiiiiiiijjjjjjjjjjkkkkkkkkkkklllllllllllllllllmmmmmmmmmmmmmmmmmmmmmmmmmmmmmmmmmmmmmmmmmmlllllllllllllllllkkkkkkkkkkkjjjjjjjjjjiiiiiiiihhhhhhhhgggggggfffffffeeeeeeeddddddcccccccbbbbbbaaaaaa--..-
(PID.TID 0000.0001) //     39 -..--aaaaaabbbbbbbccccccdddddddeeeeeeefffffffggggggghhhhhhhhiiiiiiiiijjjjjjjjjjkkkkkkkkkkkkkllllllllllllllllllllllmmmmmmmmmmmmmmmmmmmmmmmmllllllllllllllllllllllkkkkkkkkkkkkkjjjjjjjjjjiiiiiiiiihhhhhhhhgggggggfffffffeeeeeeedddddddccccccbbbbbbbaaaaaa--..-
(PID.TID 0000.0001) //     38 -..--aaaaaaabbbbbbcccccccddddddeeeeeeeffffffffgggggggghhhhhhhhiiiiiiiiijjjjjjjjjjjkkkkkkkkkkkkkkkllllllllllllllllllllllllllllllllllllllllllllllllllllllllllkkkkkkkkkkkkkkkjjjjjjjjjjjiiiiiiiiihhhhhhhhggggggggffffffffeeeeeeeddddddcccccccbbbbbbaaaaaaa--..-
(PID.TID 0000.0001) //     37 -..--aaaaaaabbbbbbbccccccdddddddeeeeeeeffffffffgggggggghhhhhhhhhiiiiiiiiiijjjjjjjjjjjjkkkkkkkkkkkkkkkkllllllllllllllllllllllllllllllllllllllllllllllllkkkkkkkkkkkkkkkkjjjjjjjjjjjjiiiiiiiiiihhhhhhhhhggggggggffffffffeeeeeeedddddddccccccbbbbbbbaaaaaaa--..-
(PID.TID 0000.0001) //     36 -..--aaaaaaabbbbbbbcccccccdddddddeeeeeeeefffffffggggggggghhhhhhhhhiiiiiiiiiiijjjjjjjjjjjjjkkkkkkkkkkkkkkkkkkkkllllllllllllllllllllllllllllllllkkkkkkkkkkkkkkkkkkkkjjjjjjjjjjjjjiiiiiiiiiiihhhhhhhhhgggggggggfffffffeeeeeeeedddddddcccccccbbbbbbbaaaaaaa--..-
(PID.TID 0000.0001) //     35 -..---aaaaaabbbbbbbccccccccdddddddeeeeeeeeffffffffggggggggghhhhhhhhhiiiiiiiiiiiijjjjjjjjjjjjjjkkkkkkkkkkkkkkkkkkkkkkkkkkkkkkkkkkkkkkkkkkkkkkkkkkkkkkkkkkkkkkkkjjjjjjjjjjjjjjiiiiiiiiiiiihhhhhhhhhgggggggggffffffffeeeeeeeedddddddccccccccbbbbbbbaaaaaa---..-
(PID.TID 0000.0001) //     34 -..---aaaaaaabbbbbbbcccccccddddddddeeeeeeeeffffffffgggggggggghhhhhhhhhhiiiiiiiiiiiijjjjjjjjjjjjjjjjjkkkkkkkkkkkkkkkkkkkkkkkkkkkkkkkkkkkkkkkkkkkkkkkkkkkkjjjjjjjjjjjjjjjjjiiiiiiiiiiiihhhhhhhhhhggggggggggffffffffeeeeeeeeddddddddcccccccbbbbbbbaaaaaaa---..-
(PID.TID 0000.0001) //     33 -..---aaaaaaabbbbbbbccccccccddddddddeeeeeeeefffffffffgggggggggghhhhhhhhhhhiiiiiiiiiiiiijjjjjjjjjjjjjjjjjjjjkkkkkkkkkkkkkkkkkkkkkkkkkkkkkkkkkkkkkkjjjjjjjjjjjjjjjjjjjjiiiiiiiiiiiiihhhhhhhhhhhggggggggggfffffffffeeeeeeeeddddddddccccccccbbbbbbbaaaaaaa---..-
(PID.TID 0000.0001) //     32 -..---aaaaaaabbbbbbbbccccccccddddddddeeeeeeeeefffffffffgggggggggghhhhhhhhhhhhiiiiiiiiiiiiiiijjjjjjjjjjjjjjjjjjjjjjjjjjjjjjjjjjjjjjjjjjjjjjjjjjjjjjjjjjjjjjjjjjjjiiiiiiiiiiiiiiihhhhhhhhhhhhggggggggggfffffffffeeeeeeeeeddddddddccccccccbbbbbbbbaaaaaaa---..-
(PID.TID 0000.0001) //     31 -..---aaaaaaaabbbbbbbbccccccccddddddddeeeeeeeeeffffffffffggggggggggghhhhhhhhhhhhiiiiiiiiiiiiiiiiijjjjjjjjjjjjjjjjjjjjjjjjjjjjjjjjjjjjjjjjjjjjjjjjjjjjjjjjjjiiiiiiiiiiiiiiiiihhhhhhhhhhhhgggggggggggffffffffffeeeeeeeeeddddddddccccccccbbbbbbbbaaaaaaaa---..-
(PID.TID 0000.0001) //     30 -..---aaaaaaaabbbbbbbbcccccccccddddddddeeeeeeeeeeffffffffffggggggggggghhhhhhhhhhhhhhiiiiiiiiiiiiiiiiiiiiijjjjjjjjjjjjjjjjjjjjjjjjjjjjjjjjjjjjjjjjjjiiiiiiiiiiiiiiiiiiiiihhhhhhhhhhhhhhgggggggggggffffffffffeeeeeeeeeeddddddddcccccccccbbbbbbbbaaaaaaaa---..-
(PID.TID 0000.0001) //     29 -..---aaaaaaaaabbbbbbbbcccccccccdddddddddeeeeeeeeeeffffffffffggggggggggggghhhhhhhhhhhhhhhiiiiiiiiiiiiiiiiiiiiiiiiiiiiiiijjjjjjjjjjjjiiiiiiiiiiiiiiiiiiiiiiiiiiiiiiihhhhhhhhhhhhhhhgggggggggggggffffffffffeeeeeeeeeedddddddddcccccccccbbbbbbbbaaaaaaaaa---..-
(PID.TID 0000.0001) //     28 -..---aaaaaaaaabbbbbbbbbcccccccccdddddddddeeeeeeeeeeefffffffffffggggggggggggghhhhhhhhhhhhhhhhhhiiiiiiiiiiiiiiiiiiiiiiiiiiiiiiiiiiiiiiiiiiiiiiiiiiiiiiiiiiiiiihhhhhhhhhhhhhhhhhhgggggggggggggfffffffffffeeeeeeeeeeedddddddddcccccccccbbbbbbbbbaaaaaaaaa---..-
(PID.TID 0000.0001) //     27 -..----aaaaaaaabbbbbbbbbbcccccccccddddddddddeeeeeeeeeeeffffffffffffgggggggggggggghhhhhhhhhhhhhhhhhhhhhhiiiiiiiiiiiiiiiiiiiiiiiiiiiiiiiiiiiiiiiiiiiiiihhhhhhhhhhhhhhhhhhhhhhggggggggggggggffffffffffffeeeeeeeeeeeddddddddddcccccccccbbbbbbbbbbaaaaaaaa----..-
[...]
 cg2d: Sum(rhs),rhsMax =  -6.22859083754257E-10  2.06038639718333E-03
 cg2d: Sum(rhs),rhsMax =  -6.42841682663153E-10  2.08686110613003E-03
(PID.TID 0000.0001)      cg2d_init_res =   2.19609124255632E-01
(PID.TID 0000.0001)      cg2d_iters(min,last) =      -1     576
(PID.TID 0000.0001)      cg2d_last_res =   9.22917249181644E-08
(PID.TID 0000.0001) // =======================================================
(PID.TID 0000.0001) // Begin MONITOR dynamic field statistics
(PID.TID 0000.0001) // =======================================================
(PID.TID 0000.0001) %MON time_tsnumber                =                    80
(PID.TID 0000.0001) %MON time_secondsf                =   4.3200000000000E+05
(PID.TID 0000.0001) %MON dynstat_eta_max              =   9.7289505464339E-03
(PID.TID 0000.0001) %MON dynstat_eta_min              =  -7.8677356710731E-03
(PID.TID 0000.0001) %MON dynstat_eta_mean             =   1.3462317575347E-13
(PID.TID 0000.0001) %MON dynstat_eta_sd               =   4.7658962725534E-03
(PID.TID 0000.0001) %MON dynstat_eta_del2             =   3.6439982736028E-08
(PID.TID 0000.0001) %MON dynstat_uvel_max             =   5.3596074103299E-03
(PID.TID 0000.0001) %MON dynstat_uvel_min             =  -4.2439582470364E-03
(PID.TID 0000.0001) %MON dynstat_uvel_mean            =  -4.5483002323117E-07
(PID.TID 0000.0001) %MON dynstat_uvel_sd              =   2.4467375010210E-03
(PID.TID 0000.0001) %MON dynstat_uvel_del2            =   1.7016575926904E-07
(PID.TID 0000.0001) %MON dynstat_vvel_max             =   1.1282986833755E-02
(PID.TID 0000.0001) %MON dynstat_vvel_min             =  -3.4309207545542E-03
(PID.TID 0000.0001) %MON dynstat_vvel_mean            =   6.7138536414432E-08
(PID.TID 0000.0001) %MON dynstat_vvel_sd              =   2.7540685092976E-03
(PID.TID 0000.0001) %MON dynstat_vvel_del2            =   3.8208568430365E-07
(PID.TID 0000.0001) %MON dynstat_wvel_max             =   2.5979706364160E-08
(PID.TID 0000.0001) %MON dynstat_wvel_min             =  -1.3045589082540E-08
(PID.TID 0000.0001) %MON dynstat_wvel_mean            =  -3.9304057908587E-22
(PID.TID 0000.0001) %MON dynstat_wvel_sd              =   1.0900221899536E-08
(PID.TID 0000.0001) %MON dynstat_wvel_del2            =   1.0588831711947E-13
(PID.TID 0000.0001) %MON dynstat_theta_max            =   2.0000000000000E+01
(PID.TID 0000.0001) %MON dynstat_theta_min            =   2.0000000000000E+01
(PID.TID 0000.0001) %MON dynstat_theta_mean           =   1.9999999999999E+01
(PID.TID 0000.0001) %MON dynstat_theta_sd             =   1.1972645097557E-12
(PID.TID 0000.0001) %MON dynstat_theta_del2           =   0.0000000000000E+00
(PID.TID 0000.0001) %MON dynstat_salt_max             =   3.0000000000000E+01
(PID.TID 0000.0001) %MON dynstat_salt_min             =   3.0000000000000E+01
(PID.TID 0000.0001) %MON dynstat_salt_mean            =   2.9999999999998E+01
(PID.TID 0000.0001) %MON dynstat_salt_sd              =   2.1529444893531E-12
(PID.TID 0000.0001) %MON dynstat_salt_del2            =   0.0000000000000E+00
(PID.TID 0000.0001) %MON trAdv_CFL_u_max              =   5.7078971182732E-03
(PID.TID 0000.0001) %MON trAdv_CFL_v_max              =   1.1993883718893E-02
(PID.TID 0000.0001) %MON trAdv_CFL_w_max              =   3.0028869310163E-08
(PID.TID 0000.0001) %MON advcfl_uvel_max              =   5.7883760031563E-03
(PID.TID 0000.0001) %MON advcfl_vvel_max              =   1.2185625780456E-02
(PID.TID 0000.0001) %MON advcfl_wvel_max              =   5.6116165746585E-08
(PID.TID 0000.0001) %MON advcfl_W_hf_max              =   0.0000000000000E+00
(PID.TID 0000.0001) %MON pe_b_mean                    =   2.3239294984818E-08
(PID.TID 0000.0001) %MON ke_max                       =   6.3650054235661E-05
(PID.TID 0000.0001) %MON ke_mean                      =   6.7551639235223E-06
(PID.TID 0000.0001) %MON ke_vol                       =   7.2529629296391E+15
(PID.TID 0000.0001) %MON vort_r_min                   =  -5.9290107561915E-08
(PID.TID 0000.0001) %MON vort_r_max                   =   7.7527578628104E-07
(PID.TID 0000.0001) %MON vort_a_mean                  =   8.2300000000001E-05
(PID.TID 0000.0001) %MON vort_a_sd                    =   7.1300018782699E-06
(PID.TID 0000.0001) %MON vort_p_mean                  =   8.6919888360247E-05
(PID.TID 0000.0001) %MON vort_p_sd                    =   1.7856755934279E-05
(PID.TID 0000.0001) %MON surfExpan_theta_mean         =  -7.8417917865411E-21
(PID.TID 0000.0001) %MON surfExpan_salt_mean          =  -1.1911437164424E-20
(PID.TID 0000.0001) // =======================================================
(PID.TID 0000.0001) // End MONITOR dynamic field statistics
(PID.TID 0000.0001) // =======================================================
 cg2d: Sum(rhs),rhsMax =  -6.61981330862815E-10  2.11336308853051E-03
 cg2d: Sum(rhs),rhsMax =  -6.82539476326571E-10  2.13989054247652E-03
 cg2d: Sum(rhs),rhsMax =  -7.07027103530322E-10  2.16644164032875E-03
 cg2d: Sum(rhs),rhsMax =  -7.27518413567996E-10  2.19301452996054E-03
 cg2d: Sum(rhs),rhsMax =  -7.49184353443511E-10  2.21960733595826E-03
 cg2d: Sum(rhs),rhsMax =  -7.74913466727867E-10  2.24621816062764E-03
 cg2d: Sum(rhs),rhsMax =  -8.01798169525192E-10  2.27284508570012E-03
 cg2d: Sum(rhs),rhsMax =  -8.29196628027162E-10  2.29948766244487E-03
 cg2d: Sum(rhs),rhsMax =  -8.57234679074725E-10  2.32618267403501E-03
 cg2d: Sum(rhs),rhsMax =  -8.88465842563413E-10  2.35288966769152E-03
 cg2d: Sum(rhs),rhsMax =  -9.21646342577631E-10  2.37960666920069E-03
 cg2d: Sum(rhs),rhsMax =  -9.54534756791858E-10  2.40633168819216E-03
 cg2d: Sum(rhs),rhsMax =  -9.86870904440273E-10  2.43306271922262E-03
 cg2d: Sum(rhs),rhsMax =  -1.01866495794134E-09  2.45979774254599E-03
 cg2d: Sum(rhs),rhsMax =  -1.05338396338972E-09  2.48653472508953E-03
 cg2d: Sum(rhs),rhsMax =  -1.08977897539386E-09  2.51327162123214E-03
(PID.TID 0000.0001)      cg2d_init_res =   1.87716469922498E-01
(PID.TID 0000.0001)      cg2d_iters(min,last) =      -1     575
(PID.TID 0000.0001)      cg2d_last_res =   9.61708341023290E-08
(PID.TID 0000.0001) // =======================================================
(PID.TID 0000.0001) // Begin MONITOR dynamic field statistics
(PID.TID 0000.0001) // =======================================================
(PID.TID 0000.0001) %MON time_tsnumber                =                    96
(PID.TID 0000.0001) %MON time_secondsf                =   5.1840000000000E+05
(PID.TID 0000.0001) %MON dynstat_eta_max              =   1.1674563166188E-02
(PID.TID 0000.0001) %MON dynstat_eta_min              =  -8.8664466050142E-03
(PID.TID 0000.0001) %MON dynstat_eta_mean             =   2.7548325007429E-13
(PID.TID 0000.0001) %MON dynstat_eta_sd               =   5.5789649933153E-03
(PID.TID 0000.0001) %MON dynstat_eta_del2             =   4.5092045832517E-08
(PID.TID 0000.0001) %MON dynstat_uvel_max             =   6.5686817505197E-03
(PID.TID 0000.0001) %MON dynstat_uvel_min             =  -4.7652476539556E-03
(PID.TID 0000.0001) %MON dynstat_uvel_mean            =  -4.8381166202301E-07
(PID.TID 0000.0001) %MON dynstat_uvel_sd              =   2.8200156816069E-03
(PID.TID 0000.0001) %MON dynstat_uvel_del2            =   1.7750984981462E-07
(PID.TID 0000.0001) %MON dynstat_vvel_max             =   1.4194370317794E-02
(PID.TID 0000.0001) %MON dynstat_vvel_min             =  -3.4788502722054E-03
(PID.TID 0000.0001) %MON dynstat_vvel_mean            =   1.1437194617103E-07
(PID.TID 0000.0001) %MON dynstat_vvel_sd              =   3.2933667482045E-03
(PID.TID 0000.0001) %MON dynstat_vvel_del2            =   4.4910815854897E-07
(PID.TID 0000.0001) %MON dynstat_wvel_max             =   2.6843825350225E-08
(PID.TID 0000.0001) %MON dynstat_wvel_min             =  -1.0905244917307E-08
(PID.TID 0000.0001) %MON dynstat_wvel_mean            =  -1.4215650467719E-22
(PID.TID 0000.0001) %MON dynstat_wvel_sd              =   1.0566214766428E-08
(PID.TID 0000.0001) %MON dynstat_wvel_del2            =   1.1127843514181E-13
(PID.TID 0000.0001) %MON dynstat_theta_max            =   2.0000000000000E+01
(PID.TID 0000.0001) %MON dynstat_theta_min            =   2.0000000000000E+01
(PID.TID 0000.0001) %MON dynstat_theta_mean           =   1.9999999999999E+01
(PID.TID 0000.0001) %MON dynstat_theta_sd             =   1.1972645097557E-12
(PID.TID 0000.0001) %MON dynstat_theta_del2           =   0.0000000000000E+00
(PID.TID 0000.0001) %MON dynstat_salt_max             =   3.0000000000000E+01
(PID.TID 0000.0001) %MON dynstat_salt_min             =   3.0000000000000E+01
(PID.TID 0000.0001) %MON dynstat_salt_mean            =   2.9999999999998E+01
(PID.TID 0000.0001) %MON dynstat_salt_sd              =   2.1529444893531E-12
(PID.TID 0000.0001) %MON dynstat_salt_del2            =   0.0000000000000E+00
(PID.TID 0000.0001) %MON trAdv_CFL_u_max              =   7.0105102405976E-03
(PID.TID 0000.0001) %MON trAdv_CFL_v_max              =   1.5129884990064E-02
(PID.TID 0000.0001) %MON trAdv_CFL_w_max              =   3.0799788477457E-08
(PID.TID 0000.0001) %MON advcfl_uvel_max              =   7.0941762905613E-03
(PID.TID 0000.0001) %MON advcfl_vvel_max              =   1.5329919943217E-02
(PID.TID 0000.0001) %MON advcfl_wvel_max              =   5.7982662756485E-08
(PID.TID 0000.0001) %MON advcfl_W_hf_max              =   0.0000000000000E+00
(PID.TID 0000.0001) %MON pe_b_mean                    =   3.1844985060634E-08
(PID.TID 0000.0001) %MON ke_max                       =   1.0073561335746E-04
(PID.TID 0000.0001) %MON ke_mean                      =   9.3570664436507E-06
(PID.TID 0000.0001) %MON ke_vol                       =   7.2529629296391E+15
(PID.TID 0000.0001) %MON vort_r_min                   =  -8.1195230461294E-08
(PID.TID 0000.0001) %MON vort_r_max                   =   9.5055727260912E-07
(PID.TID 0000.0001) %MON vort_a_mean                  =   8.2299999999999E-05
(PID.TID 0000.0001) %MON vort_a_sd                    =   7.1301088786276E-06
(PID.TID 0000.0001) %MON vort_p_mean                  =   8.6919888360246E-05
(PID.TID 0000.0001) %MON vort_p_sd                    =   1.7860328104430E-05
(PID.TID 0000.0001) %MON surfExpan_theta_mean         =  -2.8193832283606E-21
(PID.TID 0000.0001) %MON surfExpan_salt_mean          =  -4.5482155655257E-21
(PID.TID 0000.0001) // =======================================================
(PID.TID 0000.0001) // End MONITOR dynamic field statistics
(PID.TID 0000.0001) // =======================================================
 cg2d: Sum(rhs),rhsMax =  -1.12372322558230E-09  2.54000637369967E-03
 cg2d: Sum(rhs),rhsMax =  -1.16226234192496E-09  2.56676770177399E-03
 cg2d: Sum(rhs),rhsMax =  -1.20559832256228E-09  2.59354702156983E-03
 cg2d: Sum(rhs),rhsMax =  -1.24279201513255E-09  2.62031989153409E-03
(PID.TID 0000.0001) %CHECKPOINT       100 ckptA
(PID.TID 0000.0001)   Seconds in section "ALL                    [THE_MODEL_MAIN]":
(PID.TID 0000.0001)           User time:   69.2521506473422
(PID.TID 0000.0001)         System time:  0.000000000000000E+000
(PID.TID 0000.0001)     Wall clock time:   69.7972919940948
(PID.TID 0000.0001)          No. starts:           1
(PID.TID 0000.0001)           No. stops:           1
(PID.TID 0000.0001)   Seconds in section "INITIALISE_FIXED       [THE_MODEL_MAIN]":
(PID.TID 0000.0001)           User time:  0.116982005536556
(PID.TID 0000.0001)         System time:  0.000000000000000E+000
(PID.TID 0000.0001)     Wall clock time:  0.336695194244385
(PID.TID 0000.0001)          No. starts:           1
(PID.TID 0000.0001)           No. stops:           1
(PID.TID 0000.0001)   Seconds in section "THE_MAIN_LOOP          [THE_MODEL_MAIN]":
(PID.TID 0000.0001)           User time:   69.1351346522570
(PID.TID 0000.0001)         System time:  0.000000000000000E+000
(PID.TID 0000.0001)     Wall clock time:   69.4605360031128
(PID.TID 0000.0001)          No. starts:           1
(PID.TID 0000.0001)           No. stops:           1
(PID.TID 0000.0001)   Seconds in section "INITIALISE_VARIA    [THE_MAIN_LOOP]":
(PID.TID 0000.0001)           User time:  3.583200275897980E-002
(PID.TID 0000.0001)         System time:  0.000000000000000E+000
(PID.TID 0000.0001)     Wall clock time:  0.112993955612183
(PID.TID 0000.0001)          No. starts:           1
(PID.TID 0000.0001)           No. stops:           1
(PID.TID 0000.0001)   Seconds in section "MAIN LOOP           [THE_MAIN_LOOP]":
(PID.TID 0000.0001)           User time:   69.0992646515369
(PID.TID 0000.0001)         System time:  0.000000000000000E+000
(PID.TID 0000.0001)     Wall clock time:   69.3474678993225
(PID.TID 0000.0001)          No. starts:           1
(PID.TID 0000.0001)           No. stops:           1
(PID.TID 0000.0001)   Seconds in section "MAIN_DO_LOOP        [THE_MAIN_LOOP]":
(PID.TID 0000.0001)           User time:   69.0982928723097
(PID.TID 0000.0001)         System time:  0.000000000000000E+000
(PID.TID 0000.0001)     Wall clock time:   69.3464379310608
(PID.TID 0000.0001)          No. starts:         100
(PID.TID 0000.0001)           No. stops:         100
(PID.TID 0000.0001)   Seconds in section "FORWARD_STEP        [MAIN_DO_LOOP]":
(PID.TID 0000.0001)           User time:   69.0961948335171
(PID.TID 0000.0001)         System time:  0.000000000000000E+000
(PID.TID 0000.0001)     Wall clock time:   69.3442876338959
(PID.TID 0000.0001)          No. starts:         100
(PID.TID 0000.0001)           No. stops:         100
(PID.TID 0000.0001)   Seconds in section "LOAD_FIELDS_DRIVER  [FORWARD_STEP]":
(PID.TID 0000.0001)           User time:  3.104463219642639E-003
(PID.TID 0000.0001)         System time:  0.000000000000000E+000
(PID.TID 0000.0001)     Wall clock time:  3.181219100952148E-003
(PID.TID 0000.0001)          No. starts:         100
(PID.TID 0000.0001)           No. stops:         100
(PID.TID 0000.0001)   Seconds in section "EXTERNAL_FLDS_LOAD [LOAD_FLDS_DRIVER]":
(PID.TID 0000.0001)           User time:  1.010328531265259E-003
(PID.TID 0000.0001)         System time:  0.000000000000000E+000
(PID.TID 0000.0001)     Wall clock time:  1.033306121826172E-003
(PID.TID 0000.0001)          No. starts:         100
(PID.TID 0000.0001)           No. stops:         100
(PID.TID 0000.0001)   Seconds in section "DO_ATMOSPHERIC_PHYS [FORWARD_STEP]":
(PID.TID 0000.0001)           User time:  1.032263040542603E-003
(PID.TID 0000.0001)         System time:  0.000000000000000E+000
(PID.TID 0000.0001)     Wall clock time:  1.040458679199219E-003
(PID.TID 0000.0001)          No. starts:         100
(PID.TID 0000.0001)           No. stops:         100
(PID.TID 0000.0001)   Seconds in section "DO_OCEANIC_PHYS     [FORWARD_STEP]":
(PID.TID 0000.0001)           User time:  0.189966008067131
(PID.TID 0000.0001)         System time:  0.000000000000000E+000
(PID.TID 0000.0001)     Wall clock time:  0.195918083190918
(PID.TID 0000.0001)          No. starts:         100
(PID.TID 0000.0001)           No. stops:         100
(PID.TID 0000.0001)   Seconds in section "THERMODYNAMICS      [FORWARD_STEP]":
(PID.TID 0000.0001)           User time:  0.100444346666336
(PID.TID 0000.0001)         System time:  0.000000000000000E+000
(PID.TID 0000.0001)     Wall clock time:  0.100903511047363
(PID.TID 0000.0001)          No. starts:         100
(PID.TID 0000.0001)           No. stops:         100
(PID.TID 0000.0001)   Seconds in section "DYNAMICS            [FORWARD_STEP]":
(PID.TID 0000.0001)           User time:   2.34318967163563
(PID.TID 0000.0001)         System time:  0.000000000000000E+000
(PID.TID 0000.0001)     Wall clock time:   2.35587835311890
(PID.TID 0000.0001)          No. starts:         100
(PID.TID 0000.0001)           No. stops:         100
(PID.TID 0000.0001)   Seconds in section "SOLVE_FOR_PRESSURE  [FORWARD_STEP]":
(PID.TID 0000.0001)           User time:   66.0926342755556
(PID.TID 0000.0001)         System time:  0.000000000000000E+000
(PID.TID 0000.0001)     Wall clock time:   66.1410739421844
(PID.TID 0000.0001)          No. starts:         100
(PID.TID 0000.0001)           No. stops:         100
(PID.TID 0000.0001)   Seconds in section "MOM_CORRECTION_STEP [FORWARD_STEP]":
(PID.TID 0000.0001)           User time:  0.163562774658203
(PID.TID 0000.0001)         System time:  0.000000000000000E+000
(PID.TID 0000.0001)     Wall clock time:  0.165793180465698
(PID.TID 0000.0001)          No. starts:         100
(PID.TID 0000.0001)           No. stops:         100
(PID.TID 0000.0001)   Seconds in section "INTEGR_CONTINUITY   [FORWARD_STEP]":
(PID.TID 0000.0001)           User time:  0.103129208087921
(PID.TID 0000.0001)         System time:  0.000000000000000E+000
(PID.TID 0000.0001)     Wall clock time:  0.104480743408203
(PID.TID 0000.0001)          No. starts:         100
(PID.TID 0000.0001)           No. stops:         100
(PID.TID 0000.0001)   Seconds in section "TRC_CORRECTION_STEP [FORWARD_STEP]":
(PID.TID 0000.0001)           User time:  1.043617725372314E-003
(PID.TID 0000.0001)         System time:  0.000000000000000E+000
(PID.TID 0000.0001)     Wall clock time:  1.072406768798828E-003
(PID.TID 0000.0001)          No. starts:         100
(PID.TID 0000.0001)           No. stops:         100
(PID.TID 0000.0001)   Seconds in section "BLOCKING_EXCHANGES  [FORWARD_STEP]":
(PID.TID 0000.0001)           User time:  1.116675138473511E-002
(PID.TID 0000.0001)         System time:  0.000000000000000E+000
(PID.TID 0000.0001)     Wall clock time:  1.133990287780762E-002
(PID.TID 0000.0001)          No. starts:         100
(PID.TID 0000.0001)           No. stops:         100
(PID.TID 0000.0001)   Seconds in section "MONITOR             [FORWARD_STEP]":
(PID.TID 0000.0001)           User time:  6.744080781936646E-002
(PID.TID 0000.0001)         System time:  0.000000000000000E+000
(PID.TID 0000.0001)     Wall clock time:  7.869648933410645E-002
(PID.TID 0000.0001)          No. starts:         100
(PID.TID 0000.0001)           No. stops:         100
(PID.TID 0000.0001)   Seconds in section "DO_THE_MODEL_IO     [FORWARD_STEP]":
(PID.TID 0000.0001)           User time:  1.082479953765869E-003
(PID.TID 0000.0001)         System time:  0.000000000000000E+000
(PID.TID 0000.0001)     Wall clock time:  8.181905746459961E-002
(PID.TID 0000.0001)          No. starts:         100
(PID.TID 0000.0001)           No. stops:         100
(PID.TID 0000.0001)   Seconds in section "DO_WRITE_PICKUP     [FORWARD_STEP]":
(PID.TID 0000.0001)           User time:  1.044988632202148E-003
(PID.TID 0000.0001)         System time:  0.000000000000000E+000
(PID.TID 0000.0001)     Wall clock time:  8.787035942077637E-002
(PID.TID 0000.0001)          No. starts:         100
(PID.TID 0000.0001)           No. stops:         100
(PID.TID 0000.0001) // ======================================================
(PID.TID 0000.0001) // Tile <-> Tile communication statistics
(PID.TID 0000.0001) // ======================================================
(PID.TID 0000.0001) // o Tile number: 000001
(PID.TID 0000.0001) //         No. X exchanges =              0
(PID.TID 0000.0001) //            Max. X spins =              0
(PID.TID 0000.0001) //            Min. X spins =     1000000000
(PID.TID 0000.0001) //          Total. X spins =              0
(PID.TID 0000.0001) //            Avg. X spins =       0.00E+00
(PID.TID 0000.0001) //         No. Y exchanges =              0
(PID.TID 0000.0001) //            Max. Y spins =              0
(PID.TID 0000.0001) //            Min. Y spins =     1000000000
(PID.TID 0000.0001) //          Total. Y spins =              0
(PID.TID 0000.0001) //            Avg. Y spins =       0.00E+00
(PID.TID 0000.0001) // o Thread number: 000001
(PID.TID 0000.0001) //            No. barriers =         346620
(PID.TID 0000.0001) //      Max. barrier spins =              1
(PID.TID 0000.0001) //      Min. barrier spins =              1
(PID.TID 0000.0001) //     Total barrier spins =         346620
(PID.TID 0000.0001) //      Avg. barrier spins =       1.00E+00
PROGRAM MAIN: Execution ended Normally
