(PID.TID 0000.0001) 
(PID.TID 0000.0001) // ======================================================
(PID.TID 0000.0001) //                      MITgcm UV
(PID.TID 0000.0001) //                      =========
(PID.TID 0000.0001) // ======================================================
(PID.TID 0000.0001) // execution environment starting up...
(PID.TID 0000.0001) 
(PID.TID 0000.0001) // MITgcmUV version:  checkpoint67v
(PID.TID 0000.0001) // Build user:        eavesr
(PID.TID 0000.0001) // Build host:        atmlxint3
(PID.TID 0000.0001) // Build date:        Mon 15 Feb 11:44:00 GMT 2021
(PID.TID 0000.0001) 
(PID.TID 0000.0001) // =======================================================
(PID.TID 0000.0001) // Execution Environment parameter file "eedata"
(PID.TID 0000.0001) // =======================================================
(PID.TID 0000.0001) ># Example "eedata" file
(PID.TID 0000.0001) ># Lines beginning "#" are comments
(PID.TID 0000.0001) >#  nTx      :: No. threads per process in X
(PID.TID 0000.0001) >#  nTy      :: No. threads per process in Y
(PID.TID 0000.0001) ># debugMode :: print debug msg (sequence of S/R calls)
(PID.TID 0000.0001) > &EEPARMS
(PID.TID 0000.0001) > nTx=1,
(PID.TID 0000.0001) > nTy=1,
(PID.TID 0000.0001) > &
(PID.TID 0000.0001) ># Note: Some systems use & as the namelist terminator (as shown here).
(PID.TID 0000.0001) >#       Other systems use a / character.
(PID.TID 0000.0001) 
(PID.TID 0000.0001) // =======================================================
(PID.TID 0000.0001) // Computational Grid Specification ( see files "SIZE.h" )
(PID.TID 0000.0001) //                                  ( and "eedata"       )
(PID.TID 0000.0001) // =======================================================
(PID.TID 0000.0001)      nPx =    1 ; /* No. processes in X */
(PID.TID 0000.0001)      nPy =    1 ; /* No. processes in Y */
(PID.TID 0000.0001)      nSx =    1 ; /* No. tiles in X per process */
(PID.TID 0000.0001)      nSy =    1 ; /* No. tiles in Y per process */
(PID.TID 0000.0001)      sNx =   62 ; /* Tile size in X */
(PID.TID 0000.0001)      sNy =   62 ; /* Tile size in Y */
(PID.TID 0000.0001)      OLx =    2 ; /* Tile overlap distance in X */
(PID.TID 0000.0001)      OLy =    2 ; /* Tile overlap distance in Y */
(PID.TID 0000.0001)      nTx =    1 ; /* No. threads in X per process */
(PID.TID 0000.0001)      nTy =    1 ; /* No. threads in Y per process */
(PID.TID 0000.0001)       Nr =    1 ; /* No. levels in the vertical   */
(PID.TID 0000.0001)       Nx =   62 ; /* Total domain size in X ( = nPx*nSx*sNx ) */
(PID.TID 0000.0001)       Ny =   62 ; /* Total domain size in Y ( = nPy*nSy*sNy ) */
(PID.TID 0000.0001)   nTiles =    1 ; /* Total no. tiles per process ( = nSx*nSy ) */
(PID.TID 0000.0001)   nProcs =    1 ; /* Total no. processes ( = nPx*nPy ) */
(PID.TID 0000.0001) nThreads =    1 ; /* Total no. threads per process ( = nTx*nTy ) */
(PID.TID 0000.0001) usingMPI =    F ; /* Flag used to control whether MPI is in use */
(PID.TID 0000.0001)                   /*  note: To execute a program with MPI calls */
(PID.TID 0000.0001)                   /*  it must be launched appropriately e.g     */
(PID.TID 0000.0001)                   /*  "mpirun -np 64 ......"                    */
(PID.TID 0000.0001) useCoupler=   F ; /* Flag used to control communications with   */
(PID.TID 0000.0001)                   /*  other model components, through a coupler */
(PID.TID 0000.0001) useNest2W_parent =    F ;/* Control 2-W Nesting comm */
(PID.TID 0000.0001) useNest2W_child  =    F ;/* Control 2-W Nesting comm */
(PID.TID 0000.0001) debugMode =    F ; /* print debug msg. (sequence of S/R calls)  */
(PID.TID 0000.0001) printMapIncludesZeros=    F ; /* print zeros in Std.Output maps */
(PID.TID 0000.0001) maxLengthPrt1D=   65 /* maxLength of 1D array printed to StdOut */
(PID.TID 0000.0001) 
(PID.TID 0000.0001) // ======================================================
(PID.TID 0000.0001) // Mapping of tiles to threads
(PID.TID 0000.0001) // ======================================================
(PID.TID 0000.0001) // -o- Thread   1, tiles (   1:   1,   1:   1)
(PID.TID 0000.0001) 
(PID.TID 0000.0001) // ======================================================
(PID.TID 0000.0001) // Tile <-> Tile connectvity table
(PID.TID 0000.0001) // ======================================================
(PID.TID 0000.0001) // Tile number: 000001 (process no. = 000000)
(PID.TID 0000.0001) //        WEST: Tile = 000001, Process = 000000, Comm = put
(PID.TID 0000.0001) //                bi = 000001, bj = 000001
(PID.TID 0000.0001) //        EAST: Tile = 000001, Process = 000000, Comm = put
(PID.TID 0000.0001) //                bi = 000001, bj = 000001
(PID.TID 0000.0001) //       SOUTH: Tile = 000001, Process = 000000, Comm = put
(PID.TID 0000.0001) //                bi = 000001, bj = 000001
(PID.TID 0000.0001) //       NORTH: Tile = 000001, Process = 000000, Comm = put
(PID.TID 0000.0001) //                bi = 000001, bj = 000001
(PID.TID 0000.0001) 
(PID.TID 0000.0001)  INI_PARMS: opening model parameter file "data"
(PID.TID 0000.0001)  OPEN_COPY_DATA_FILE: opening file data
(PID.TID 0000.0001) // =======================================================
(PID.TID 0000.0001) // Parameter file "data"
(PID.TID 0000.0001) // =======================================================
(PID.TID 0000.0001) ># Model parameters
(PID.TID 0000.0001) ># Continuous equation parameters
(PID.TID 0000.0001) > &PARM01
(PID.TID 0000.0001) > viscAh=4.E2,
(PID.TID 0000.0001) > f0=1.E-4,
(PID.TID 0000.0001) > beta=1.E-11,
(PID.TID 0000.0001) > rhoConst=1000.,
(PID.TID 0000.0001) > gBaro=9.81,
(PID.TID 0000.0001) > rigidLid=.FALSE.,
(PID.TID 0000.0001) > implicitFreeSurface=.TRUE.,
(PID.TID 0000.0001) ># momAdvection=.FALSE.,
(PID.TID 0000.0001) > tempStepping=.FALSE.,
(PID.TID 0000.0001) > saltStepping=.FALSE.,
(PID.TID 0000.0001) > useSingleCpuIO=.TRUE.,
(PID.TID 0000.0001) > &
(PID.TID 0000.0001) >
(PID.TID 0000.0001) ># Elliptic solver parameters
(PID.TID 0000.0001) > &PARM02
(PID.TID 0000.0001) > cg2dTargetResidual=1.E-7,
(PID.TID 0000.0001) > cg2dMaxIters=1000,
(PID.TID 0000.0001) > &
(PID.TID 0000.0001) >
(PID.TID 0000.0001) ># Time stepping parameters
(PID.TID 0000.0001) > &PARM03
(PID.TID 0000.0001) > nIter0=0,
(PID.TID 0000.0001) > nTimeSteps=21600,
(PID.TID 0000.0001) > deltaT=1200.0,
(PID.TID 0000.0001) > pChkptFreq=31104000.0,
(PID.TID 0000.0001) > chkptFreq=25920000.0,
(PID.TID 0000.0001) > dumpFreq=86400.0,
(PID.TID 0000.0001) > monitorFreq=86400.,
(PID.TID 0000.0001) > monitorSelect=2,
(PID.TID 0000.0001) >#-for longer run (3.0 yr):
(PID.TID 0000.0001) ># nTimeSteps=77760,
(PID.TID 0000.0001) ># monitorFreq=864000.,
(PID.TID 0000.0001) > &
(PID.TID 0000.0001) >
(PID.TID 0000.0001) ># Gridding parameters
(PID.TID 0000.0001) > &PARM04
(PID.TID 0000.0001) > usingCartesianGrid=.TRUE.,
(PID.TID 0000.0001) > delX=62*20.E3,
(PID.TID 0000.0001) > delY=62*20.E3,
(PID.TID 0000.0001) > xgOrigin=-20.E3,
(PID.TID 0000.0001) > ygOrigin=-20.E3,
(PID.TID 0000.0001) > delR=5000.,
(PID.TID 0000.0001) > &
(PID.TID 0000.0001) >
(PID.TID 0000.0001) ># Input datasets
(PID.TID 0000.0001) > &PARM05
(PID.TID 0000.0001) > bathyFile='bathy.bin'
(PID.TID 0000.0001) > zonalWindFile='windx_cosy.bin',
(PID.TID 0000.0001) >#zonalWindFile='windx_siny.bin',
(PID.TID 0000.0001) > meridWindFile=,
(PID.TID 0000.0001) > &
(PID.TID 0000.0001) 
(PID.TID 0000.0001)  INI_PARMS ; starts to read PARM01
(PID.TID 0000.0001)  INI_PARMS ; read PARM01 : OK
(PID.TID 0000.0001)  INI_PARMS ; starts to read PARM02
(PID.TID 0000.0001)  INI_PARMS ; read PARM02 : OK
(PID.TID 0000.0001)  INI_PARMS ; starts to read PARM03
(PID.TID 0000.0001)  INI_PARMS ; read PARM03 : OK
(PID.TID 0000.0001)  INI_PARMS ; starts to read PARM04
(PID.TID 0000.0001)  INI_PARMS ; read PARM04 : OK
(PID.TID 0000.0001)  INI_PARMS ; starts to read PARM05
(PID.TID 0000.0001)  INI_PARMS ; read PARM05 : OK
(PID.TID 0000.0001)  INI_PARMS: finished reading file "data"
(PID.TID 0000.0001)  PACKAGES_BOOT: opening data.pkg
(PID.TID 0000.0001)  OPEN_COPY_DATA_FILE: opening file data.pkg
(PID.TID 0000.0001) // =======================================================
(PID.TID 0000.0001) // Parameter file "data.pkg"
(PID.TID 0000.0001) // =======================================================
(PID.TID 0000.0001) ># Packages
(PID.TID 0000.0001) > &PACKAGES
(PID.TID 0000.0001) > &
(PID.TID 0000.0001) 
(PID.TID 0000.0001)  PACKAGES_BOOT: finished reading data.pkg
(PID.TID 0000.0001)  PACKAGES_BOOT: On/Off package Summary
 --------  pkgs with a standard "usePKG" On/Off switch in "data.pkg":  --------
 -------- pkgs without standard "usePKG" On/Off switch in "data.pkg":  --------
 pkg/generic_advdiff      compiled but not used ( useGAD                   = F )
 pkg/mom_common           compiled   and   used ( momStepping              = T )
 pkg/mom_vecinv           compiled but not used ( +vectorInvariantMomentum = F )
 pkg/mom_fluxform         compiled   and   used ( & not vectorInvariantMom = T )
 pkg/monitor              compiled   and   used ( monitorFreq > 0.         = T )
 pkg/debug                compiled but not used ( debugMode                = F )
 pkg/rw                   compiled   and   used
 pkg/mdsio                compiled   and   used
(PID.TID 0000.0001)  PACKAGES_BOOT: End of package Summary
(PID.TID 0000.0001) 
(PID.TID 0000.0001) SET_PARMS: done
(PID.TID 0000.0001) Enter INI_VERTICAL_GRID: setInterFDr=    T ; setCenterDr=    F
(PID.TID 0000.0001) %MON XC_max                       =   1.2100000000000E+06
(PID.TID 0000.0001) %MON XC_min                       =  -1.0000000000000E+04
(PID.TID 0000.0001) %MON XC_mean                      =   6.0000000000000E+05
(PID.TID 0000.0001) %MON XC_sd                        =   3.5791060336347E+05
(PID.TID 0000.0001) %MON XG_max                       =   1.2000000000000E+06
(PID.TID 0000.0001) %MON XG_min                       =  -2.0000000000000E+04
(PID.TID 0000.0001) %MON XG_mean                      =   5.9000000000000E+05
(PID.TID 0000.0001) %MON XG_sd                        =   3.5791060336347E+05
(PID.TID 0000.0001) %MON DXC_max                      =   2.0000000000000E+04
(PID.TID 0000.0001) %MON DXC_min                      =   2.0000000000000E+04
(PID.TID 0000.0001) %MON DXC_mean                     =   2.0000000000000E+04
(PID.TID 0000.0001) %MON DXC_sd                       =   3.6379788070917E-12
(PID.TID 0000.0001) %MON DXF_max                      =   2.0000000000000E+04
(PID.TID 0000.0001) %MON DXF_min                      =   2.0000000000000E+04
(PID.TID 0000.0001) %MON DXF_mean                     =   2.0000000000000E+04
(PID.TID 0000.0001) %MON DXF_sd                       =   3.6379788070917E-12
(PID.TID 0000.0001) %MON DXG_max                      =   2.0000000000000E+04
(PID.TID 0000.0001) %MON DXG_min                      =   2.0000000000000E+04
(PID.TID 0000.0001) %MON DXG_mean                     =   2.0000000000000E+04
(PID.TID 0000.0001) %MON DXG_sd                       =   3.6379788070917E-12
(PID.TID 0000.0001) %MON DXV_max                      =   2.0000000000000E+04
(PID.TID 0000.0001) %MON DXV_min                      =   2.0000000000000E+04
(PID.TID 0000.0001) %MON DXV_mean                     =   2.0000000000000E+04
(PID.TID 0000.0001) %MON DXV_sd                       =   3.6379788070917E-12
(PID.TID 0000.0001) %MON YC_max                       =   1.2100000000000E+06
(PID.TID 0000.0001) %MON YC_min                       =  -1.0000000000000E+04
(PID.TID 0000.0001) %MON YC_mean                      =   6.0000000000000E+05
(PID.TID 0000.0001) %MON YC_sd                        =   3.5791060336347E+05
(PID.TID 0000.0001) %MON YG_max                       =   1.2000000000000E+06
(PID.TID 0000.0001) %MON YG_min                       =  -2.0000000000000E+04
(PID.TID 0000.0001) %MON YG_mean                      =   5.9000000000000E+05
(PID.TID 0000.0001) %MON YG_sd                        =   3.5791060336347E+05
(PID.TID 0000.0001) %MON DYC_max                      =   2.0000000000000E+04
(PID.TID 0000.0001) %MON DYC_min                      =   2.0000000000000E+04
(PID.TID 0000.0001) %MON DYC_mean                     =   2.0000000000000E+04
(PID.TID 0000.0001) %MON DYC_sd                       =   3.6379788070917E-12
(PID.TID 0000.0001) %MON DYF_max                      =   2.0000000000000E+04
(PID.TID 0000.0001) %MON DYF_min                      =   2.0000000000000E+04
(PID.TID 0000.0001) %MON DYF_mean                     =   2.0000000000000E+04
(PID.TID 0000.0001) %MON DYF_sd                       =   3.6379788070917E-12
(PID.TID 0000.0001) %MON DYG_max                      =   2.0000000000000E+04
(PID.TID 0000.0001) %MON DYG_min                      =   2.0000000000000E+04
(PID.TID 0000.0001) %MON DYG_mean                     =   2.0000000000000E+04
(PID.TID 0000.0001) %MON DYG_sd                       =   3.6379788070917E-12
(PID.TID 0000.0001) %MON DYU_max                      =   2.0000000000000E+04
(PID.TID 0000.0001) %MON DYU_min                      =   2.0000000000000E+04
(PID.TID 0000.0001) %MON DYU_mean                     =   2.0000000000000E+04
(PID.TID 0000.0001) %MON DYU_sd                       =   3.6379788070917E-12
(PID.TID 0000.0001) %MON RA_max                       =   4.0000000000000E+08
(PID.TID 0000.0001) %MON RA_min                       =   4.0000000000000E+08
(PID.TID 0000.0001) %MON RA_mean                      =   4.0000000000000E+08
(PID.TID 0000.0001) %MON RA_sd                        =   5.9604644775391E-08
(PID.TID 0000.0001) %MON RAW_max                      =   4.0000000000000E+08
(PID.TID 0000.0001) %MON RAW_min                      =   4.0000000000000E+08
(PID.TID 0000.0001) %MON RAW_mean                     =   4.0000000000000E+08
(PID.TID 0000.0001) %MON RAW_sd                       =   5.9604644775391E-08
(PID.TID 0000.0001) %MON RAS_max                      =   4.0000000000000E+08
(PID.TID 0000.0001) %MON RAS_min                      =   4.0000000000000E+08
(PID.TID 0000.0001) %MON RAS_mean                     =   4.0000000000000E+08
(PID.TID 0000.0001) %MON RAS_sd                       =   5.9604644775391E-08
(PID.TID 0000.0001) %MON RAZ_max                      =   4.0000000000000E+08
(PID.TID 0000.0001) %MON RAZ_min                      =   4.0000000000000E+08
(PID.TID 0000.0001) %MON RAZ_mean                     =   4.0000000000000E+08
(PID.TID 0000.0001) %MON RAZ_sd                       =   5.9604644775391E-08
(PID.TID 0000.0001) %MON AngleCS_max                  =   1.0000000000000E+00
(PID.TID 0000.0001) %MON AngleCS_min                  =   1.0000000000000E+00
(PID.TID 0000.0001) %MON AngleCS_mean                 =   1.0000000000000E+00
(PID.TID 0000.0001) %MON AngleCS_sd                   =   0.0000000000000E+00
(PID.TID 0000.0001) %MON AngleSN_max                  =   0.0000000000000E+00
(PID.TID 0000.0001) %MON AngleSN_min                  =   0.0000000000000E+00
(PID.TID 0000.0001) %MON AngleSN_mean                 =   0.0000000000000E+00
(PID.TID 0000.0001) %MON AngleSN_sd                   =   0.0000000000000E+00
(PID.TID 0000.0001)  MDS_READ_FIELD: opening global file: bathy.bin
(PID.TID 0000.0001) // =======================================================
(PID.TID 0000.0001) // Field Model R_low (ini_masks_etc)
(PID.TID 0000.0001) // CMIN =         -5.000000000000000E+03
(PID.TID 0000.0001) // CMAX =         -5.000000000000000E+03
(PID.TID 0000.0001) // CINT =          0.000000000000000E+00
(PID.TID 0000.0001) // SYMBOLS (CMIN->CMAX): -abcdefghijklmnopqrstuvwxyz+
(PID.TID 0000.0001) //                  0.0: .
(PID.TID 0000.0001) // RANGE I (Lo:Hi:Step):(    -1:    64:     1)
(PID.TID 0000.0001) // RANGE J (Lo:Hi:Step):(    64:    -1:    -1)
(PID.TID 0000.0001) // RANGE K (Lo:Hi:Step):(   1:   1:   1)
(PID.TID 0000.0001) // =======================================================
(PID.TID 0000.0001) // =======================================================
(PID.TID 0000.0001) // END OF FIELD                                          =
(PID.TID 0000.0001) // =======================================================
(PID.TID 0000.0001) 
(PID.TID 0000.0001) // =======================================================
(PID.TID 0000.0001) // Field Model Ro_surf (ini_masks_etc)
(PID.TID 0000.0001) // CMIN =          1.000000000000000E+32
(PID.TID 0000.0001) // CMAX =         -1.000000000000000E+32
(PID.TID 0000.0001) // CINT =          0.000000000000000E+00
(PID.TID 0000.0001) // SYMBOLS (CMIN->CMAX): -abcdefghijklmnopqrstuvwxyz+
(PID.TID 0000.0001) //                  0.0: .
(PID.TID 0000.0001) // RANGE I (Lo:Hi:Step):(    -1:    64:     1)
(PID.TID 0000.0001) // RANGE J (Lo:Hi:Step):(    64:    -1:    -1)
(PID.TID 0000.0001) // RANGE K (Lo:Hi:Step):(   1:   1:   1)
(PID.TID 0000.0001) // =======================================================
(PID.TID 0000.0001) // =======================================================
(PID.TID 0000.0001) // END OF FIELD                                          =
(PID.TID 0000.0001) // =======================================================
(PID.TID 0000.0001) 
(PID.TID 0000.0001) // =======================================================
(PID.TID 0000.0001) // Field hFacC at iteration          0
(PID.TID 0000.0001) // CMIN =          1.000000000000000E+00
(PID.TID 0000.0001) // CMAX =          1.000000000000000E+00
(PID.TID 0000.0001) // CINT =          0.000000000000000E+00
(PID.TID 0000.0001) // SYMBOLS (CMIN->CMAX): -abcdefghijklmnopqrstuvwxyz+
(PID.TID 0000.0001) //                  0.0: .
(PID.TID 0000.0001) // RANGE I (Lo:Hi:Step):(    -1:    64:     1)
(PID.TID 0000.0001) // RANGE J (Lo:Hi:Step):(    64:    -1:    -1)
(PID.TID 0000.0001) // RANGE K (Lo:Hi:Step):(   1:   1:   1)
(PID.TID 0000.0001) // =======================================================
(PID.TID 0000.0001) // =======================================================
(PID.TID 0000.0001) // END OF FIELD                                          =
(PID.TID 0000.0001) // =======================================================
(PID.TID 0000.0001) 
(PID.TID 0000.0001) // =======================================================
(PID.TID 0000.0001) // Field hFacW at iteration          0
(PID.TID 0000.0001) // CMIN =          1.000000000000000E+00
(PID.TID 0000.0001) // CMAX =          1.000000000000000E+00
(PID.TID 0000.0001) // CINT =          0.000000000000000E+00
(PID.TID 0000.0001) // SYMBOLS (CMIN->CMAX): -abcdefghijklmnopqrstuvwxyz+
(PID.TID 0000.0001) //                  0.0: .
(PID.TID 0000.0001) // RANGE I (Lo:Hi:Step):(    -1:    64:     1)
(PID.TID 0000.0001) // RANGE J (Lo:Hi:Step):(    64:    -1:    -1)
(PID.TID 0000.0001) // RANGE K (Lo:Hi:Step):(   1:   1:   1)
(PID.TID 0000.0001) // =======================================================
(PID.TID 0000.0001) // =======================================================
(PID.TID 0000.0001) // END OF FIELD                                          =
(PID.TID 0000.0001) // =======================================================
(PID.TID 0000.0001) 
(PID.TID 0000.0001) // =======================================================
(PID.TID 0000.0001) // Field hFacS at iteration          0
(PID.TID 0000.0001) // CMIN =          1.000000000000000E+00
(PID.TID 0000.0001) // CMAX =          1.000000000000000E+00
(PID.TID 0000.0001) // CINT =          0.000000000000000E+00
(PID.TID 0000.0001) // SYMBOLS (CMIN->CMAX): -abcdefghijklmnopqrstuvwxyz+
(PID.TID 0000.0001) //                  0.0: .
(PID.TID 0000.0001) // RANGE I (Lo:Hi:Step):(    -1:    64:     1)
(PID.TID 0000.0001) // RANGE J (Lo:Hi:Step):(    64:    -1:    -1)
(PID.TID 0000.0001) // RANGE K (Lo:Hi:Step):(   1:   1:   1)
(PID.TID 0000.0001) // =======================================================
(PID.TID 0000.0001) // =======================================================
(PID.TID 0000.0001) // END OF FIELD                                          =
(PID.TID 0000.0001) // =======================================================
(PID.TID 0000.0001) 
(PID.TID 0000.0001) GAD_INIT_FIXED: GAD_OlMinSize=  0  0  1
(PID.TID 0000.0001) 
(PID.TID 0000.0001) // ===================================
(PID.TID 0000.0001) // GAD parameters :
(PID.TID 0000.0001) // ===================================
(PID.TID 0000.0001) tempAdvScheme =   /* Temp. Horiz.Advection scheme selector */
(PID.TID 0000.0001)                       2
(PID.TID 0000.0001)     ;
(PID.TID 0000.0001) tempVertAdvScheme =   /* Temp. Vert. Advection scheme selector */
(PID.TID 0000.0001)                       2
(PID.TID 0000.0001)     ;
(PID.TID 0000.0001) tempMultiDimAdvec =   /* use Muti-Dim Advec method for Temp */
(PID.TID 0000.0001)                   F
(PID.TID 0000.0001)     ;
(PID.TID 0000.0001) tempSOM_Advection = /* use 2nd Order Moment Advection for Temp */
(PID.TID 0000.0001)                   F
(PID.TID 0000.0001)     ;
(PID.TID 0000.0001) AdamsBashforthGt = /* apply Adams-Bashforth extrapolation on Gt */
(PID.TID 0000.0001)                   F
(PID.TID 0000.0001)     ;
(PID.TID 0000.0001) AdamsBashforth_T = /* apply Adams-Bashforth extrapolation on Temp */
(PID.TID 0000.0001)                   F
(PID.TID 0000.0001)     ;
(PID.TID 0000.0001) saltAdvScheme =   /* Salt. Horiz.advection scheme selector */
(PID.TID 0000.0001)                       2
(PID.TID 0000.0001)     ;
(PID.TID 0000.0001) saltVertAdvScheme =   /* Salt. Vert. Advection scheme selector */
(PID.TID 0000.0001)                       2
(PID.TID 0000.0001)     ;
(PID.TID 0000.0001) saltMultiDimAdvec =   /* use Muti-Dim Advec method for Salt */
(PID.TID 0000.0001)                   F
(PID.TID 0000.0001)     ;
(PID.TID 0000.0001) saltSOM_Advection = /* use 2nd Order Moment Advection for Salt */
(PID.TID 0000.0001)                   F
(PID.TID 0000.0001)     ;
(PID.TID 0000.0001) AdamsBashforthGs = /* apply Adams-Bashforth extrapolation on Gs */
(PID.TID 0000.0001)                   F
(PID.TID 0000.0001)     ;
(PID.TID 0000.0001) AdamsBashforth_S = /* apply Adams-Bashforth extrapolation on Salt */
(PID.TID 0000.0001)                   F
(PID.TID 0000.0001)     ;
(PID.TID 0000.0001) // ===================================
(PID.TID 0000.0001) %MON fCori_max                    =   1.1210000000000E-04
(PID.TID 0000.0001) %MON fCori_min                    =   9.9900000000000E-05
(PID.TID 0000.0001) %MON fCori_mean                   =   1.0600000000000E-04
(PID.TID 0000.0001) %MON fCori_sd                     =   3.5791060336346E-06
(PID.TID 0000.0001) %MON fCoriG_max                   =   1.1200000000000E-04
(PID.TID 0000.0001) %MON fCoriG_min                   =   9.9800000000000E-05
(PID.TID 0000.0001) %MON fCoriG_mean                  =   1.0590000000000E-04
(PID.TID 0000.0001) %MON fCoriG_sd                    =   3.5791060336346E-06
(PID.TID 0000.0001) %MON fCoriCos_max                 =   0.0000000000000E+00
(PID.TID 0000.0001) %MON fCoriCos_min                 =   0.0000000000000E+00
(PID.TID 0000.0001) %MON fCoriCos_mean                =   0.0000000000000E+00
(PID.TID 0000.0001) %MON fCoriCos_sd                  =   0.0000000000000E+00
(PID.TID 0000.0001) INI_CG2D: CG2D normalisation factor =  2.0000000000000001E-04
(PID.TID 0000.0001) 
(PID.TID 0000.0001) // =======================================================
(PID.TID 0000.0001) // Model configuration
(PID.TID 0000.0001) // =======================================================
(PID.TID 0000.0001) //
(PID.TID 0000.0001) // "Physical" paramters ( PARM01 in namelist )
(PID.TID 0000.0001) //
(PID.TID 0000.0001) buoyancyRelation = /* Type of relation to get Buoyancy */
(PID.TID 0000.0001)               'OCEANIC'
(PID.TID 0000.0001)     ;
(PID.TID 0000.0001) fluidIsAir   =  /* fluid major constituent is Air */
(PID.TID 0000.0001)                   F
(PID.TID 0000.0001)     ;
(PID.TID 0000.0001) fluidIsWater =  /* fluid major constituent is Water */
(PID.TID 0000.0001)                   T
(PID.TID 0000.0001)     ;
(PID.TID 0000.0001) usingPCoords =  /* use p (or p*) vertical coordinate */
(PID.TID 0000.0001)                   F
(PID.TID 0000.0001)     ;
(PID.TID 0000.0001) usingZCoords =  /* use z (or z*) vertical coordinate */
(PID.TID 0000.0001)                   T
(PID.TID 0000.0001)     ;
(PID.TID 0000.0001) tRef =   /* Reference temperature profile ( oC or K ) */
(PID.TID 0000.0001)                 2.000000000000000E+01       /* K =  1 */
(PID.TID 0000.0001)     ;
(PID.TID 0000.0001) sRef =   /* Reference salinity profile ( psu ) */
(PID.TID 0000.0001)                 3.000000000000000E+01       /* K =  1 */
(PID.TID 0000.0001)     ;
(PID.TID 0000.0001) useStrainTensionVisc= /* Use StrainTension Form of Viscous Operator */
(PID.TID 0000.0001)                   F
(PID.TID 0000.0001)     ;
(PID.TID 0000.0001) useVariableVisc = /* Use variable horizontal viscosity */
(PID.TID 0000.0001)                   F
(PID.TID 0000.0001)     ;
(PID.TID 0000.0001) useHarmonicVisc = /* Use harmonic horizontal viscosity */
(PID.TID 0000.0001)                   T
(PID.TID 0000.0001)     ;
(PID.TID 0000.0001) useBiharmonicVisc= /* Use biharmonic horiz.  viscosity */
(PID.TID 0000.0001)                   F
(PID.TID 0000.0001)     ;
(PID.TID 0000.0001) useSmag3D = /* Use isotropic 3-D Smagorinsky viscosity */
(PID.TID 0000.0001)                   F
(PID.TID 0000.0001)     ;
(PID.TID 0000.0001) viscAh  =   /* Lateral harmonic viscosity ( m^2/s ) */
(PID.TID 0000.0001)                 4.000000000000000E+02
(PID.TID 0000.0001)     ;
(PID.TID 0000.0001) viscA4  =   /* Lateral biharmonic viscosity ( m^4/s ) */
(PID.TID 0000.0001)                 0.000000000000000E+00
(PID.TID 0000.0001)     ;
(PID.TID 0000.0001) no_slip_sides =  /* Viscous BCs: No-slip sides */
(PID.TID 0000.0001)                   T
(PID.TID 0000.0001)     ;
(PID.TID 0000.0001) sideDragFactor = /* side-drag scaling factor (non-dim) */
(PID.TID 0000.0001)                 2.000000000000000E+00
(PID.TID 0000.0001)     ;
(PID.TID 0000.0001) viscArNr = /* vertical profile of vertical viscosity ( m^2/s )*/
(PID.TID 0000.0001)                 0.000000000000000E+00       /* K =  1 */
(PID.TID 0000.0001)     ;
(PID.TID 0000.0001) no_slip_bottom =  /* Viscous BCs: No-slip bottom */
(PID.TID 0000.0001)                   T
(PID.TID 0000.0001)     ;
(PID.TID 0000.0001) bottomVisc_pCell = /* Partial-cell in bottom Visc. BC */
(PID.TID 0000.0001)                   F
(PID.TID 0000.0001)     ;
(PID.TID 0000.0001) bottomDragLinear = /* linear bottom-drag coefficient ( m/s ) */
(PID.TID 0000.0001)                 0.000000000000000E+00
(PID.TID 0000.0001)     ;
(PID.TID 0000.0001) bottomDragQuadratic = /* quadratic bottom-drag coefficient (-) */
(PID.TID 0000.0001)                 0.000000000000000E+00
(PID.TID 0000.0001)     ;
(PID.TID 0000.0001) selectBotDragQuadr = /* select quadratic bottom drag options */
(PID.TID 0000.0001)                      -1
(PID.TID 0000.0001)     ;
(PID.TID 0000.0001) diffKhT =   /* Laplacian diffusion of heat laterally ( m^2/s ) */
(PID.TID 0000.0001)                 0.000000000000000E+00
(PID.TID 0000.0001)     ;
(PID.TID 0000.0001) diffK4T =   /* Biharmonic diffusion of heat laterally ( m^4/s ) */
(PID.TID 0000.0001)                 0.000000000000000E+00
(PID.TID 0000.0001)     ;
(PID.TID 0000.0001) diffKhS =   /* Laplacian diffusion of salt laterally ( m^2/s ) */
(PID.TID 0000.0001)                 0.000000000000000E+00
(PID.TID 0000.0001)     ;
(PID.TID 0000.0001) diffK4S =   /* Biharmonic diffusion of salt laterally ( m^4/s ) */
(PID.TID 0000.0001)                 0.000000000000000E+00
(PID.TID 0000.0001)     ;
(PID.TID 0000.0001) diffKrNrT = /* vertical profile of vertical diffusion of Temp ( m^2/s )*/
(PID.TID 0000.0001)                 0.000000000000000E+00       /* K =  1 */
(PID.TID 0000.0001)     ;
(PID.TID 0000.0001) diffKrNrS = /* vertical profile of vertical diffusion of Salt ( m^2/s )*/
(PID.TID 0000.0001)                 0.000000000000000E+00       /* K =  1 */
(PID.TID 0000.0001)     ;
(PID.TID 0000.0001) diffKrBL79surf = /* Surface diffusion for Bryan and Lewis 79 ( m^2/s ) */
(PID.TID 0000.0001)                 0.000000000000000E+00
(PID.TID 0000.0001)     ;
(PID.TID 0000.0001) diffKrBL79deep = /* Deep diffusion for Bryan and Lewis 1979 ( m^2/s ) */
(PID.TID 0000.0001)                 0.000000000000000E+00
(PID.TID 0000.0001)     ;
(PID.TID 0000.0001) diffKrBL79scl = /* Depth scale for Bryan and Lewis 1979 ( m ) */
(PID.TID 0000.0001)                 2.000000000000000E+02
(PID.TID 0000.0001)     ;
(PID.TID 0000.0001) diffKrBL79Ho = /* Turning depth for Bryan and Lewis 1979 ( m ) */
(PID.TID 0000.0001)                -2.000000000000000E+03
(PID.TID 0000.0001)     ;
(PID.TID 0000.0001) ivdc_kappa = /* Implicit Vertical Diffusivity for Convection ( m^2/s) */
(PID.TID 0000.0001)                 0.000000000000000E+00
(PID.TID 0000.0001)     ;
(PID.TID 0000.0001) hMixCriteria=  /* Criteria for mixed-layer diagnostic */
(PID.TID 0000.0001)                -8.000000000000000E-01
(PID.TID 0000.0001)     ;
(PID.TID 0000.0001) dRhoSmall =  /* Parameter for mixed-layer diagnostic */
(PID.TID 0000.0001)                 1.000000000000000E-06
(PID.TID 0000.0001)     ;
(PID.TID 0000.0001) hMixSmooth=  /* Smoothing parameter for mixed-layer diagnostic */
(PID.TID 0000.0001)                 0.000000000000000E+00
(PID.TID 0000.0001)     ;
(PID.TID 0000.0001) eosType =  /* Type of Equation of State */
(PID.TID 0000.0001)               'LINEAR'
(PID.TID 0000.0001)     ;
(PID.TID 0000.0001) tAlpha = /* Linear EOS thermal expansion coefficient ( 1/oC ) */
(PID.TID 0000.0001)                 2.000000000000000E-04
(PID.TID 0000.0001)     ;
(PID.TID 0000.0001) sBeta  = /* Linear EOS haline contraction coefficient ( 1/psu ) */
(PID.TID 0000.0001)                 7.400000000000000E-04
(PID.TID 0000.0001)     ;
(PID.TID 0000.0001) rhoNil    = /* Reference density for Linear EOS ( kg/m^3 ) */
(PID.TID 0000.0001)                 9.998000000000000E+02
(PID.TID 0000.0001)     ;
(PID.TID 0000.0001) selectP_inEOS_Zc = /* select pressure to use in EOS (0,1,2,3) */
(PID.TID 0000.0001)                       0
(PID.TID 0000.0001)     0= -g*rhoConst*z ; 1= pRef (from tRef,sRef); 2= Hyd P ; 3= Hyd+NH P
(PID.TID 0000.0001)     ;
(PID.TID 0000.0001) surf_pRef = /* Surface reference pressure ( Pa ) */
(PID.TID 0000.0001)                 1.013250000000000E+05
(PID.TID 0000.0001)     ;
(PID.TID 0000.0001) HeatCapacity_Cp =  /* Specific heat capacity ( J/kg/K ) */
(PID.TID 0000.0001)                 3.994000000000000E+03
(PID.TID 0000.0001)     ;
(PID.TID 0000.0001) celsius2K = /* 0 degree Celsius converted to Kelvin ( K ) */
(PID.TID 0000.0001)                 2.731500000000000E+02
(PID.TID 0000.0001)     ;
(PID.TID 0000.0001) rhoConst  = /* Reference density (Boussinesq)  ( kg/m^3 ) */
(PID.TID 0000.0001)                 1.000000000000000E+03
(PID.TID 0000.0001)     ;
(PID.TID 0000.0001) rhoFacC = /* normalized Reference density @ cell-Center (-) */
(PID.TID 0000.0001)                 1.000000000000000E+00       /* K =  1 */
(PID.TID 0000.0001)     ;
(PID.TID 0000.0001) rhoFacF = /* normalized Reference density @ W-Interface (-) */
(PID.TID 0000.0001)     2 @  1.000000000000000E+00              /* K =  1:  2 */
(PID.TID 0000.0001)     ;
(PID.TID 0000.0001) rhoConstFresh = /* Fresh-water reference density ( kg/m^3 ) */
(PID.TID 0000.0001)                 1.000000000000000E+03
(PID.TID 0000.0001)     ;
(PID.TID 0000.0001) gravity =   /* Gravitational acceleration ( m/s^2 ) */
(PID.TID 0000.0001)                 9.810000000000000E+00
(PID.TID 0000.0001)     ;
(PID.TID 0000.0001) gBaro =   /* Barotropic gravity ( m/s^2 ) */
(PID.TID 0000.0001)                 9.810000000000000E+00
(PID.TID 0000.0001)     ;
(PID.TID 0000.0001) gravFacC = /* gravity factor (vs surf.) @ cell-Center (-) */
(PID.TID 0000.0001)                 1.000000000000000E+00       /* K =  1 */
(PID.TID 0000.0001)     ;
(PID.TID 0000.0001) gravFacF = /* gravity factor (vs surf.) @ W-Interface (-) */
(PID.TID 0000.0001)     2 @  1.000000000000000E+00              /* K =  1:  2 */
(PID.TID 0000.0001)     ;
(PID.TID 0000.0001) rotationPeriod =   /* Rotation Period ( s ) */
(PID.TID 0000.0001)                 8.616400000000000E+04
(PID.TID 0000.0001)     ;
(PID.TID 0000.0001) omega =   /* Angular velocity ( rad/s ) */
(PID.TID 0000.0001)                 7.292123516990375E-05
(PID.TID 0000.0001)     ;
(PID.TID 0000.0001) f0 =   /* Reference coriolis parameter ( 1/s ) */
(PID.TID 0000.0001)                 1.000000000000000E-04
(PID.TID 0000.0001)     ;
(PID.TID 0000.0001) beta =   /* Beta ( 1/(m.s) ) */
(PID.TID 0000.0001)                 9.999999999999999E-12
(PID.TID 0000.0001)     ;
(PID.TID 0000.0001) fPrime =   /* Second coriolis parameter ( 1/s ) */
(PID.TID 0000.0001)                 0.000000000000000E+00
(PID.TID 0000.0001)     ;
(PID.TID 0000.0001) rigidLid =   /* Rigid lid on/off flag */
(PID.TID 0000.0001)                   F
(PID.TID 0000.0001)     ;
(PID.TID 0000.0001) implicitFreeSurface =   /* Implicit free surface on/off flag */
(PID.TID 0000.0001)                   T
(PID.TID 0000.0001)     ;
(PID.TID 0000.0001) freeSurfFac =   /* Implicit free surface factor */
(PID.TID 0000.0001)                 1.000000000000000E+00
(PID.TID 0000.0001)     ;
(PID.TID 0000.0001) implicSurfPress =  /* Surface Pressure implicit factor (0-1)*/
(PID.TID 0000.0001)                 1.000000000000000E+00
(PID.TID 0000.0001)     ;
(PID.TID 0000.0001) implicDiv2DFlow =  /* Barot. Flow Div. implicit factor (0-1)*/
(PID.TID 0000.0001)                 1.000000000000000E+00
(PID.TID 0000.0001)     ;
(PID.TID 0000.0001) uniformLin_PhiSurf = /* use uniform Bo_surf on/off flag*/
(PID.TID 0000.0001)                   T
(PID.TID 0000.0001)     ;
(PID.TID 0000.0001) uniformFreeSurfLev = /* free-surface level-index is uniform */
(PID.TID 0000.0001)                   T
(PID.TID 0000.0001)     ;
(PID.TID 0000.0001) hFacMin =   /* minimum partial cell factor (hFac) */
(PID.TID 0000.0001)                 1.000000000000000E+00
(PID.TID 0000.0001)     ;
(PID.TID 0000.0001) hFacMinDr = /* minimum partial cell thickness ( m) */
(PID.TID 0000.0001)                 0.000000000000000E+00
(PID.TID 0000.0001)     ;
(PID.TID 0000.0001) exactConserv =  /* Exact Volume Conservation on/off flag*/
(PID.TID 0000.0001)                   F
(PID.TID 0000.0001)     ;
(PID.TID 0000.0001) linFSConserveTr = /* Tracer correction for Lin Free Surface on/off flag*/
(PID.TID 0000.0001)                   F
(PID.TID 0000.0001)     ;
(PID.TID 0000.0001) nonlinFreeSurf = /* Non-linear Free Surf. options (-1,0,1,2,3)*/
(PID.TID 0000.0001)                       0
(PID.TID 0000.0001)      -1,0= Off ; 1,2,3= On, 2=+rescale gU,gV, 3=+update cg2d solv.
(PID.TID 0000.0001)     ;
(PID.TID 0000.0001) hFacInf =   /* lower threshold for hFac (nonlinFreeSurf only)*/
(PID.TID 0000.0001)                 2.000000000000000E-01
(PID.TID 0000.0001)     ;
(PID.TID 0000.0001) hFacSup =   /* upper threshold for hFac (nonlinFreeSurf only)*/
(PID.TID 0000.0001)                 2.000000000000000E+00
(PID.TID 0000.0001)     ;
(PID.TID 0000.0001) select_rStar = /* r* Vertical coord. options (=0 r coord.; >0 uses r*)*/
(PID.TID 0000.0001)                       0
(PID.TID 0000.0001)     ;
(PID.TID 0000.0001) useRealFreshWaterFlux = /* Real Fresh Water Flux on/off flag*/
(PID.TID 0000.0001)                   F
(PID.TID 0000.0001)     ;
(PID.TID 0000.0001) temp_EvPrRn = /* Temp. of Evap/Prec/R (UNSET=use local T)(oC)*/
(PID.TID 0000.0001)                 1.234567000000000E+05
(PID.TID 0000.0001)     ;
(PID.TID 0000.0001) salt_EvPrRn = /* Salin. of Evap/Prec/R (UNSET=use local S)(psu)*/
(PID.TID 0000.0001)                 0.000000000000000E+00
(PID.TID 0000.0001)     ;
(PID.TID 0000.0001) selectAddFluid = /* option for mass source/sink of fluid (=0: off) */
(PID.TID 0000.0001)                       0
(PID.TID 0000.0001)     ;
(PID.TID 0000.0001) temp_addMass = /* Temp. of addMass array (UNSET=use local T)(oC)*/
(PID.TID 0000.0001)                 1.234567000000000E+05
(PID.TID 0000.0001)     ;
(PID.TID 0000.0001) salt_addMass = /* Salin. of addMass array (UNSET=use local S)(psu)*/
(PID.TID 0000.0001)                 0.000000000000000E+00
(PID.TID 0000.0001)     ;
(PID.TID 0000.0001) convertFW2Salt = /* convert F.W. Flux to Salt Flux (-1=use local S)(psu)*/
(PID.TID 0000.0001)                 3.500000000000000E+01
(PID.TID 0000.0001)     ;
(PID.TID 0000.0001) use3Dsolver = /* use 3-D pressure solver on/off flag */
(PID.TID 0000.0001)                   F
(PID.TID 0000.0001)     ;
(PID.TID 0000.0001) nonHydrostatic =  /* Non-Hydrostatic on/off flag */
(PID.TID 0000.0001)                   F
(PID.TID 0000.0001)     ;
(PID.TID 0000.0001) nh_Am2 = /* Non-Hydrostatic terms scaling factor */
(PID.TID 0000.0001)                 1.000000000000000E+00
(PID.TID 0000.0001)     ;
(PID.TID 0000.0001) implicitNHPress = /* Non-Hyd Pressure implicit factor (0-1)*/
(PID.TID 0000.0001)                 1.000000000000000E+00
(PID.TID 0000.0001)     ;
(PID.TID 0000.0001) selectNHfreeSurf = /* Non-Hyd (free-)Surface option */
(PID.TID 0000.0001)                       0
(PID.TID 0000.0001)     ;
(PID.TID 0000.0001) quasiHydrostatic = /* Quasi-Hydrostatic on/off flag */
(PID.TID 0000.0001)                   F
(PID.TID 0000.0001)     ;
(PID.TID 0000.0001) calc_wVelocity = /* vertical velocity calculation on/off flag */
(PID.TID 0000.0001)                   T
(PID.TID 0000.0001)     ;
(PID.TID 0000.0001) momStepping =  /* Momentum equation on/off flag */
(PID.TID 0000.0001)                   T
(PID.TID 0000.0001)     ;
(PID.TID 0000.0001) vectorInvariantMomentum= /* Vector-Invariant Momentum on/off */
(PID.TID 0000.0001)                   F
(PID.TID 0000.0001)     ;
(PID.TID 0000.0001) momAdvection =  /* Momentum advection on/off flag */
(PID.TID 0000.0001)                   T
(PID.TID 0000.0001)     ;
(PID.TID 0000.0001) momViscosity =  /* Momentum viscosity on/off flag */
(PID.TID 0000.0001)                   T
(PID.TID 0000.0001)     ;
(PID.TID 0000.0001) momImplVertAdv= /* Momentum implicit vert. advection on/off*/
(PID.TID 0000.0001)                   F
(PID.TID 0000.0001)     ;
(PID.TID 0000.0001) implicitViscosity = /* Implicit viscosity on/off flag */
(PID.TID 0000.0001)                   F
(PID.TID 0000.0001)     ;
(PID.TID 0000.0001) selectImplicitDrag= /* Implicit bot Drag options (0,1,2)*/
(PID.TID 0000.0001)                       0
(PID.TID 0000.0001)     0= Expl. ; 1= Impl. on provis. Vel ; 2= Fully Impl (with surf.P)
(PID.TID 0000.0001)     ;
(PID.TID 0000.0001) metricTerms =  /* metric-Terms on/off flag */
(PID.TID 0000.0001)                   F
(PID.TID 0000.0001)     ;
(PID.TID 0000.0001) useNHMTerms = /* Non-Hydrostatic Metric-Terms on/off */
(PID.TID 0000.0001)                   F
(PID.TID 0000.0001)     ;
(PID.TID 0000.0001) selectCoriMap = /* Coriolis Map options (0,1,2,3)*/
(PID.TID 0000.0001)                       1
(PID.TID 0000.0001)     0= f-Plane ; 1= Beta-Plane ; 2= Spherical ; 3= read from file
(PID.TID 0000.0001)     ;
(PID.TID 0000.0001) use3dCoriolis = /* 3-D Coriolis on/off flag */
(PID.TID 0000.0001)                   F
(PID.TID 0000.0001)     ;
(PID.TID 0000.0001) useCoriolis =  /* Coriolis on/off flag */
(PID.TID 0000.0001)                   T
(PID.TID 0000.0001)     ;
(PID.TID 0000.0001) useCDscheme =  /* CD scheme on/off flag */
(PID.TID 0000.0001)                   F
(PID.TID 0000.0001)     ;
(PID.TID 0000.0001) selectCoriScheme= /* Scheme selector for Coriolis-Term */
(PID.TID 0000.0001)                       0
(PID.TID 0000.0001)    = 0 : original discretization (simple averaging, no hFac)
(PID.TID 0000.0001)    = 1 : Wet-point averaging (Jamar & Ozer 1986)
(PID.TID 0000.0001)    = 2 : energy conserving scheme (no hFac weight)
(PID.TID 0000.0001)    = 3 : energy conserving scheme using Wet-point averaging
(PID.TID 0000.0001)     ;
(PID.TID 0000.0001) momForcing =  /* Momentum forcing on/off flag */
(PID.TID 0000.0001)                   T
(PID.TID 0000.0001)     ;
(PID.TID 0000.0001) momTidalForcing = /* Momentum Tidal forcing on/off flag */
(PID.TID 0000.0001)                   T
(PID.TID 0000.0001)     ;
(PID.TID 0000.0001) momPressureForcing =  /* Momentum pressure term on/off flag */
(PID.TID 0000.0001)                   T
(PID.TID 0000.0001)     ;
(PID.TID 0000.0001) implicitIntGravWave= /* Implicit Internal Gravity Wave flag */
(PID.TID 0000.0001)                   F
(PID.TID 0000.0001)     ;
(PID.TID 0000.0001) staggerTimeStep =    /* Stagger time stepping on/off flag */
(PID.TID 0000.0001)                   F
(PID.TID 0000.0001)     ;
(PID.TID 0000.0001) doResetHFactors = /* reset thickness factors @ each time-step */
(PID.TID 0000.0001)                   F
(PID.TID 0000.0001)     ;
(PID.TID 0000.0001) multiDimAdvection =  /* enable/disable Multi-Dim Advection */
(PID.TID 0000.0001)                   T
(PID.TID 0000.0001)     ;
(PID.TID 0000.0001) useMultiDimAdvec =   /* Multi-Dim Advection is/is-not used */
(PID.TID 0000.0001)                   F
(PID.TID 0000.0001)     ;
(PID.TID 0000.0001) implicitDiffusion = /* Implicit Diffusion on/off flag */
(PID.TID 0000.0001)                   F
(PID.TID 0000.0001)     ;
(PID.TID 0000.0001) tempStepping =  /* Temperature equation on/off flag */
(PID.TID 0000.0001)                   F
(PID.TID 0000.0001)     ;
(PID.TID 0000.0001) tempAdvection = /* Temperature advection on/off flag */
(PID.TID 0000.0001)                   F
(PID.TID 0000.0001)     ;
(PID.TID 0000.0001) tempImplVertAdv = /* Temp. implicit vert. advection on/off */
(PID.TID 0000.0001)                   F
(PID.TID 0000.0001)     ;
(PID.TID 0000.0001) tempForcing  =  /* Temperature forcing on/off flag */
(PID.TID 0000.0001)                   F
(PID.TID 0000.0001)     ;
(PID.TID 0000.0001) doThetaClimRelax = /* apply SST relaxation on/off flag */
(PID.TID 0000.0001)                   F
(PID.TID 0000.0001)     ;
(PID.TID 0000.0001) tempIsActiveTr = /* Temp. is a dynamically Active Tracer */
(PID.TID 0000.0001)                   F
(PID.TID 0000.0001)     ;
(PID.TID 0000.0001) saltStepping =  /* Salinity equation on/off flag */
(PID.TID 0000.0001)                   F
(PID.TID 0000.0001)     ;
(PID.TID 0000.0001) saltAdvection = /* Salinity advection on/off flag */
(PID.TID 0000.0001)                   F
(PID.TID 0000.0001)     ;
(PID.TID 0000.0001) saltImplVertAdv = /* Sali. implicit vert. advection on/off */
(PID.TID 0000.0001)                   F
(PID.TID 0000.0001)     ;
(PID.TID 0000.0001) saltForcing  =  /* Salinity forcing on/off flag */
(PID.TID 0000.0001)                   F
(PID.TID 0000.0001)     ;
(PID.TID 0000.0001) doSaltClimRelax = /* apply SSS relaxation on/off flag */
(PID.TID 0000.0001)                   F
(PID.TID 0000.0001)     ;
(PID.TID 0000.0001) saltIsActiveTr = /* Salt  is a dynamically Active Tracer */
(PID.TID 0000.0001)                   F
(PID.TID 0000.0001)     ;
(PID.TID 0000.0001)  readBinaryPrec = /* Precision used for reading binary files */
(PID.TID 0000.0001)                      32
(PID.TID 0000.0001)     ;
(PID.TID 0000.0001) writeBinaryPrec = /* Precision used for writing binary files */
(PID.TID 0000.0001)                      32
(PID.TID 0000.0001)     ;
(PID.TID 0000.0001)  rwSuffixType =   /* select format of mds file suffix */
(PID.TID 0000.0001)                       0
(PID.TID 0000.0001)    = 0 : myIter (I10.10) ;   = 1 : 100*myTime (100th sec) ;
(PID.TID 0000.0001)    = 2 : myTime (seconds);   = 3 : myTime/360 (10th of hr);
(PID.TID 0000.0001)    = 4 : myTime/3600 (hours)
(PID.TID 0000.0001)     ;
(PID.TID 0000.0001)  globalFiles = /* write "global" (=not per tile) files */
(PID.TID 0000.0001)                   F
(PID.TID 0000.0001)     ;
(PID.TID 0000.0001)  useSingleCpuIO = /* only master MPI process does I/O */
(PID.TID 0000.0001)                   T
(PID.TID 0000.0001)     ;
(PID.TID 0000.0001)  useSingleCpuInput = /* only master process reads input */
(PID.TID 0000.0001)                   T
(PID.TID 0000.0001)     ;
(PID.TID 0000.0001) /* debLev[*]  : level of debug & auxiliary message printing */
(PID.TID 0000.0001) debLevZero =  0 ; /* level of disabled aux. msg printing */
(PID.TID 0000.0001)    debLevA =  1 ; /* level of minimum  aux. msg printing */
(PID.TID 0000.0001)    debLevB =  2 ; /* level of low aux. print (report read-file opening)*/
(PID.TID 0000.0001)    debLevC =  3 ; /* level of moderate debug prt (most pkgs debug msg) */
(PID.TID 0000.0001)    debLevD =  4 ; /* level of enhanced debug prt (add DEBUG_STATS prt) */
(PID.TID 0000.0001)    debLevE =  5 ; /* level of extensive debug printing */
(PID.TID 0000.0001) debugLevel =  /* select debug printing level */
(PID.TID 0000.0001)                       2
(PID.TID 0000.0001)     ;
(PID.TID 0000.0001)  plotLevel =  /* select PLOT_FIELD printing level */
(PID.TID 0000.0001)                       2
(PID.TID 0000.0001)     ;
(PID.TID 0000.0001) //
(PID.TID 0000.0001) // Elliptic solver(s) paramters ( PARM02 in namelist )
(PID.TID 0000.0001) //
(PID.TID 0000.0001) cg2dMaxIters =   /* Upper limit on 2d con. grad iterations  */
(PID.TID 0000.0001)                    1000
(PID.TID 0000.0001)     ;
(PID.TID 0000.0001) cg2dChkResFreq =   /* 2d con. grad convergence test frequency */
(PID.TID 0000.0001)                       1
(PID.TID 0000.0001)     ;
(PID.TID 0000.0001) cg2dUseMinResSol= /* use cg2d last-iter(=0) / min-resid.(=1) solution */
(PID.TID 0000.0001)                       0
(PID.TID 0000.0001)     ;
(PID.TID 0000.0001) cg2dTargetResidual =   /* 2d con. grad target residual  */
(PID.TID 0000.0001)                 1.000000000000000E-07
(PID.TID 0000.0001)     ;
(PID.TID 0000.0001) cg2dTargetResWunit =   /* CG2d target residual [W units] */
(PID.TID 0000.0001)                -1.000000000000000E+00
(PID.TID 0000.0001)     ;
(PID.TID 0000.0001) cg2dPreCondFreq =   /* Freq. for updating cg2d preconditioner */
(PID.TID 0000.0001)                       1
(PID.TID 0000.0001)     ;
(PID.TID 0000.0001) useSRCGSolver =  /* use single reduction CG solver(s) */
(PID.TID 0000.0001)                   F
(PID.TID 0000.0001)     ;
(PID.TID 0000.0001) printResidualFreq = /* Freq. for printing CG residual */
(PID.TID 0000.0001)                       0
(PID.TID 0000.0001)     ;
(PID.TID 0000.0001) //
(PID.TID 0000.0001) // Time stepping paramters ( PARM03 in namelist )
(PID.TID 0000.0001) //
(PID.TID 0000.0001) deltaTMom =   /* Momentum equation timestep ( s ) */
(PID.TID 0000.0001)                 1.200000000000000E+03
(PID.TID 0000.0001)     ;
(PID.TID 0000.0001) deltaTFreeSurf = /* FreeSurface equation timestep ( s ) */
(PID.TID 0000.0001)                 1.200000000000000E+03
(PID.TID 0000.0001)     ;
(PID.TID 0000.0001) dTtracerLev =  /* Tracer equation timestep ( s ) */
(PID.TID 0000.0001)                 1.200000000000000E+03       /* K =  1 */
(PID.TID 0000.0001)     ;
(PID.TID 0000.0001) deltaTClock  =   /* Model clock timestep ( s ) */
(PID.TID 0000.0001)                 1.200000000000000E+03
(PID.TID 0000.0001)     ;
(PID.TID 0000.0001) cAdjFreq =   /* Convective adjustment interval ( s ) */
(PID.TID 0000.0001)                 0.000000000000000E+00
(PID.TID 0000.0001)     ;
(PID.TID 0000.0001) momForcingOutAB = /* =1: take Momentum Forcing out of Adams-Bash. stepping */
(PID.TID 0000.0001)                       0
(PID.TID 0000.0001)     ;
(PID.TID 0000.0001) tracForcingOutAB = /* =1: take T,S,pTr Forcing out of Adams-Bash. stepping */
(PID.TID 0000.0001)                       0
(PID.TID 0000.0001)     ;
(PID.TID 0000.0001) momDissip_In_AB = /* put Dissipation Tendency in Adams-Bash. stepping */
(PID.TID 0000.0001)                   T
(PID.TID 0000.0001)     ;
(PID.TID 0000.0001) doAB_onGtGs = /* apply AB on Tendencies (rather than on T,S)*/
(PID.TID 0000.0001)                   T
(PID.TID 0000.0001)     ;
(PID.TID 0000.0001) abEps =   /* Adams-Bashforth-2 stabilizing weight */
(PID.TID 0000.0001)                 1.000000000000000E-02
(PID.TID 0000.0001)     ;
(PID.TID 0000.0001) applyExchUV_early = /* Apply EXCH to U,V earlier in time-step */
(PID.TID 0000.0001)                   F
(PID.TID 0000.0001)     ;
(PID.TID 0000.0001) pickupStrictlyMatch= /* stop if pickup do not strictly match */
(PID.TID 0000.0001)                   T
(PID.TID 0000.0001)     ;
(PID.TID 0000.0001) nIter0   =   /* Run starting timestep number */
(PID.TID 0000.0001)                       0
(PID.TID 0000.0001)     ;
(PID.TID 0000.0001) nTimeSteps = /* Number of timesteps */
(PID.TID 0000.0001)                   21600
(PID.TID 0000.0001)     ;
(PID.TID 0000.0001) nEndIter =   /* Run ending timestep number */
(PID.TID 0000.0001)                   21600
(PID.TID 0000.0001)     ;
(PID.TID 0000.0001) baseTime =   /* Model base time ( s ) */
(PID.TID 0000.0001)                 0.000000000000000E+00
(PID.TID 0000.0001)     ;
(PID.TID 0000.0001) startTime =  /* Run start time ( s ) */
(PID.TID 0000.0001)                 0.000000000000000E+00
(PID.TID 0000.0001)     ;
(PID.TID 0000.0001) endTime  =   /* Integration ending time ( s ) */
(PID.TID 0000.0001)                 2.592000000000000E+07
(PID.TID 0000.0001)     ;
(PID.TID 0000.0001) pChkPtFreq = /* Permanent restart/pickup file interval ( s ) */
(PID.TID 0000.0001)                 3.110400000000000E+07
(PID.TID 0000.0001)     ;
(PID.TID 0000.0001) chkPtFreq  = /* Rolling restart/pickup file interval ( s ) */
(PID.TID 0000.0001)                 2.592000000000000E+07
(PID.TID 0000.0001)     ;
(PID.TID 0000.0001) pickup_write_mdsio =   /* Model IO flag. */
(PID.TID 0000.0001)                   T
(PID.TID 0000.0001)     ;
(PID.TID 0000.0001) pickup_read_mdsio =   /* Model IO flag. */
(PID.TID 0000.0001)                   T
(PID.TID 0000.0001)     ;
(PID.TID 0000.0001) writePickupAtEnd =   /* Model IO flag. */
(PID.TID 0000.0001)                   T
(PID.TID 0000.0001)     ;
(PID.TID 0000.0001) dumpFreq =   /* Model state write out interval ( s ). */
(PID.TID 0000.0001)                 8.640000000000000E+04
(PID.TID 0000.0001)     ;
(PID.TID 0000.0001) dumpInitAndLast= /* write out Initial & Last iter. model state */
(PID.TID 0000.0001)                   T
(PID.TID 0000.0001)     ;
(PID.TID 0000.0001) snapshot_mdsio =   /* Model IO flag. */
(PID.TID 0000.0001)                   T
(PID.TID 0000.0001)     ;
(PID.TID 0000.0001) monitorFreq =   /* Monitor output interval ( s ). */
(PID.TID 0000.0001)                 8.640000000000000E+04
(PID.TID 0000.0001)     ;
(PID.TID 0000.0001) monitorSelect = /* select group of variables to monitor */
(PID.TID 0000.0001)                       2
(PID.TID 0000.0001)     ;
(PID.TID 0000.0001) monitor_stdio =   /* Model IO flag. */
(PID.TID 0000.0001)                   T
(PID.TID 0000.0001)     ;
(PID.TID 0000.0001) externForcingPeriod =   /* forcing period (s) */
(PID.TID 0000.0001)                 0.000000000000000E+00
(PID.TID 0000.0001)     ;
(PID.TID 0000.0001) externForcingCycle =   /* period of the cyle (s). */
(PID.TID 0000.0001)                 0.000000000000000E+00
(PID.TID 0000.0001)     ;
(PID.TID 0000.0001) tauThetaClimRelax =   /* relaxation time scale (s) */
(PID.TID 0000.0001)                 0.000000000000000E+00
(PID.TID 0000.0001)     ;
(PID.TID 0000.0001) tauSaltClimRelax =   /* relaxation time scale (s) */
(PID.TID 0000.0001)                 0.000000000000000E+00
(PID.TID 0000.0001)     ;
(PID.TID 0000.0001) latBandClimRelax =   /* max. Lat. where relaxation */
(PID.TID 0000.0001)                 3.720000000000000E+06
(PID.TID 0000.0001)     ;
(PID.TID 0000.0001) //
(PID.TID 0000.0001) // Gridding paramters ( PARM04 in namelist )
(PID.TID 0000.0001) //
(PID.TID 0000.0001) usingCartesianGrid = /* Cartesian coordinates flag ( True/False ) */
(PID.TID 0000.0001)                   T
(PID.TID 0000.0001)     ;
(PID.TID 0000.0001) usingCylindricalGrid = /* Cylindrical coordinates flag ( True/False ) */
(PID.TID 0000.0001)                   F
(PID.TID 0000.0001)     ;
(PID.TID 0000.0001) usingSphericalPolarGrid = /* Spherical coordinates flag ( True/False ) */
(PID.TID 0000.0001)                   F
(PID.TID 0000.0001)     ;
(PID.TID 0000.0001) usingCurvilinearGrid = /* Curvilinear coordinates flag ( True/False ) */
(PID.TID 0000.0001)                   F
(PID.TID 0000.0001)     ;
(PID.TID 0000.0001) useMin4hFacEdges = /* set hFacW,S as minimum of adjacent hFacC factor */
(PID.TID 0000.0001)                   F
(PID.TID 0000.0001)     ;
(PID.TID 0000.0001) interViscAr_pCell = /* account for partial-cell in interior vert. viscosity */
(PID.TID 0000.0001)                   F
(PID.TID 0000.0001)     ;
(PID.TID 0000.0001) interDiffKr_pCell = /* account for partial-cell in interior vert. diffusion */
(PID.TID 0000.0001)                   F
(PID.TID 0000.0001)     ;
(PID.TID 0000.0001) pCellMix_select = /* option to enhance mixing near surface & bottom */
(PID.TID 0000.0001)                       0
(PID.TID 0000.0001)     ;
(PID.TID 0000.0001) selectSigmaCoord = /* Hybrid-Sigma Vert. Coordinate option */
(PID.TID 0000.0001)                       0
(PID.TID 0000.0001)     ;
(PID.TID 0000.0001) rSigmaBnd = /* r/sigma transition ( units of r ==  m ) */
(PID.TID 0000.0001)                 1.234567000000000E+05
(PID.TID 0000.0001)     ;
(PID.TID 0000.0001) rkSign =   /* index orientation relative to vertical coordinate */
(PID.TID 0000.0001)                -1.000000000000000E+00
(PID.TID 0000.0001)     ;
(PID.TID 0000.0001) gravitySign = /* gravity orientation relative to vertical coordinate */
(PID.TID 0000.0001)                -1.000000000000000E+00
(PID.TID 0000.0001)     ;
(PID.TID 0000.0001) seaLev_Z =  /* reference height of sea-level [m] */
(PID.TID 0000.0001)                 0.000000000000000E+00
(PID.TID 0000.0001)     ;
(PID.TID 0000.0001) top_Pres =  /* reference pressure at the top [Pa] */
(PID.TID 0000.0001)                 0.000000000000000E+00
(PID.TID 0000.0001)     ;
(PID.TID 0000.0001) mass2rUnit = /* convert mass per unit area [kg/m2] to r-units [m] */
(PID.TID 0000.0001)                 1.000000000000000E-03
(PID.TID 0000.0001)     ;
(PID.TID 0000.0001) rUnit2mass = /* convert r-units [m] to mass per unit area [kg/m2] */
(PID.TID 0000.0001)                 1.000000000000000E+03
(PID.TID 0000.0001)     ;
(PID.TID 0000.0001) drC =   /* C spacing ( units of r ) */
(PID.TID 0000.0001)     2 @  2.500000000000000E+03              /* K =  1:  2 */
(PID.TID 0000.0001)     ;
(PID.TID 0000.0001) drF =   /* W spacing ( units of r ) */
(PID.TID 0000.0001)                 5.000000000000000E+03       /* K =  1 */
(PID.TID 0000.0001)     ;
(PID.TID 0000.0001) delX = /* U spacing ( m - cartesian, degrees - spherical ) */
(PID.TID 0000.0001)    62 @  2.000000000000000E+04              /* I =  1: 62 */
(PID.TID 0000.0001)     ;
(PID.TID 0000.0001) delY = /* V spacing ( m - cartesian, degrees - spherical ) */
(PID.TID 0000.0001)    62 @  2.000000000000000E+04              /* J =  1: 62 */
(PID.TID 0000.0001)     ;
(PID.TID 0000.0001) xgOrigin = /* X-axis origin of West  edge (cartesian: m, lat-lon: deg) */
(PID.TID 0000.0001)                -2.000000000000000E+04
(PID.TID 0000.0001)     ;
(PID.TID 0000.0001) ygOrigin = /* Y-axis origin of South edge (cartesian: m, lat-lon: deg) */
(PID.TID 0000.0001)                -2.000000000000000E+04
(PID.TID 0000.0001)     ;
(PID.TID 0000.0001) rSphere =  /* Radius ( ignored - cartesian, m - spherical ) */
(PID.TID 0000.0001)                 6.370000000000000E+06
(PID.TID 0000.0001)     ;
(PID.TID 0000.0001) deepAtmosphere = /* Deep/Shallow Atmosphere flag (True/False) */
(PID.TID 0000.0001)                   F
(PID.TID 0000.0001)     ;
(PID.TID 0000.0001) xC =  /* xC(:,1,:,1) : P-point X coord ( deg. or m if cartesian) */
(PID.TID 0000.0001)                -1.000000000000000E+04,      /* I =  1 */
(PID.TID 0000.0001)                 1.000000000000000E+04,      /* I =  2 */
(PID.TID 0000.0001)                 3.000000000000000E+04,      /* I =  3 */
(PID.TID 0000.0001)                 5.000000000000000E+04,      /* I =  4 */
(PID.TID 0000.0001)                 7.000000000000000E+04,      /* I =  5 */
(PID.TID 0000.0001)                 9.000000000000000E+04,      /* I =  6 */
(PID.TID 0000.0001)                 1.100000000000000E+05,      /* I =  7 */
(PID.TID 0000.0001)                 1.300000000000000E+05,      /* I =  8 */
(PID.TID 0000.0001)                 1.500000000000000E+05,      /* I =  9 */
(PID.TID 0000.0001)                 1.700000000000000E+05,      /* I = 10 */
(PID.TID 0000.0001)                 1.900000000000000E+05,      /* I = 11 */
(PID.TID 0000.0001)                 2.100000000000000E+05,      /* I = 12 */
(PID.TID 0000.0001)                 2.300000000000000E+05,      /* I = 13 */
(PID.TID 0000.0001)                 2.500000000000000E+05,      /* I = 14 */
(PID.TID 0000.0001)                 2.700000000000000E+05,      /* I = 15 */
(PID.TID 0000.0001)                 2.900000000000000E+05,      /* I = 16 */
(PID.TID 0000.0001)                 3.100000000000000E+05,      /* I = 17 */
(PID.TID 0000.0001)                 3.300000000000000E+05,      /* I = 18 */
(PID.TID 0000.0001)                 3.500000000000000E+05,      /* I = 19 */
(PID.TID 0000.0001)                 3.700000000000000E+05,      /* I = 20 */
(PID.TID 0000.0001)                 3.900000000000000E+05,      /* I = 21 */
(PID.TID 0000.0001)                 4.100000000000000E+05,      /* I = 22 */
(PID.TID 0000.0001)                 4.300000000000000E+05,      /* I = 23 */
(PID.TID 0000.0001)                 4.500000000000000E+05,      /* I = 24 */
(PID.TID 0000.0001)                 4.700000000000000E+05,      /* I = 25 */
(PID.TID 0000.0001)                 4.900000000000000E+05,      /* I = 26 */
(PID.TID 0000.0001)                 5.100000000000000E+05,      /* I = 27 */
(PID.TID 0000.0001)                 5.300000000000000E+05,      /* I = 28 */
(PID.TID 0000.0001)                 5.500000000000000E+05,      /* I = 29 */
(PID.TID 0000.0001)                 5.700000000000000E+05,      /* I = 30 */
(PID.TID 0000.0001)                 5.900000000000000E+05,      /* I = 31 */
(PID.TID 0000.0001)                 6.100000000000000E+05,      /* I = 32 */
(PID.TID 0000.0001)                 6.300000000000000E+05,      /* I = 33 */
(PID.TID 0000.0001)                 6.500000000000000E+05,      /* I = 34 */
(PID.TID 0000.0001)                 6.700000000000000E+05,      /* I = 35 */
(PID.TID 0000.0001)                 6.900000000000000E+05,      /* I = 36 */
(PID.TID 0000.0001)                 7.100000000000000E+05,      /* I = 37 */
(PID.TID 0000.0001)                 7.300000000000000E+05,      /* I = 38 */
(PID.TID 0000.0001)                 7.500000000000000E+05,      /* I = 39 */
(PID.TID 0000.0001)                 7.700000000000000E+05,      /* I = 40 */
(PID.TID 0000.0001)                 7.900000000000000E+05,      /* I = 41 */
(PID.TID 0000.0001)                 8.100000000000000E+05,      /* I = 42 */
(PID.TID 0000.0001)                 8.300000000000000E+05,      /* I = 43 */
(PID.TID 0000.0001)                 8.500000000000000E+05,      /* I = 44 */
(PID.TID 0000.0001)                 8.700000000000000E+05,      /* I = 45 */
(PID.TID 0000.0001)                 8.900000000000000E+05,      /* I = 46 */
(PID.TID 0000.0001)                 9.100000000000000E+05,      /* I = 47 */
(PID.TID 0000.0001)                 9.300000000000000E+05,      /* I = 48 */
(PID.TID 0000.0001)                 9.500000000000000E+05,      /* I = 49 */
(PID.TID 0000.0001)                 9.700000000000000E+05,      /* I = 50 */
(PID.TID 0000.0001)                 9.900000000000000E+05,      /* I = 51 */
(PID.TID 0000.0001)                 1.010000000000000E+06,      /* I = 52 */
(PID.TID 0000.0001)                 1.030000000000000E+06,      /* I = 53 */
(PID.TID 0000.0001)                 1.050000000000000E+06,      /* I = 54 */
(PID.TID 0000.0001)                 1.070000000000000E+06,      /* I = 55 */
(PID.TID 0000.0001)                 1.090000000000000E+06,      /* I = 56 */
(PID.TID 0000.0001)                 1.110000000000000E+06,      /* I = 57 */
(PID.TID 0000.0001)                 1.130000000000000E+06,      /* I = 58 */
(PID.TID 0000.0001)                 1.150000000000000E+06,      /* I = 59 */
(PID.TID 0000.0001)                 1.170000000000000E+06,      /* I = 60 */
(PID.TID 0000.0001)                 1.190000000000000E+06,      /* I = 61 */
(PID.TID 0000.0001)                 1.210000000000000E+06       /* I = 62 */
(PID.TID 0000.0001)     ;
(PID.TID 0000.0001) yC =  /* yC(1,:,1,:) : P-point Y coord ( deg. or m if cartesian) */
(PID.TID 0000.0001)                -1.000000000000000E+04,      /* J =  1 */
(PID.TID 0000.0001)                 1.000000000000000E+04,      /* J =  2 */
(PID.TID 0000.0001)                 3.000000000000000E+04,      /* J =  3 */
(PID.TID 0000.0001)                 5.000000000000000E+04,      /* J =  4 */
(PID.TID 0000.0001)                 7.000000000000000E+04,      /* J =  5 */
(PID.TID 0000.0001)                 9.000000000000000E+04,      /* J =  6 */
(PID.TID 0000.0001)                 1.100000000000000E+05,      /* J =  7 */
(PID.TID 0000.0001)                 1.300000000000000E+05,      /* J =  8 */
(PID.TID 0000.0001)                 1.500000000000000E+05,      /* J =  9 */
(PID.TID 0000.0001)                 1.700000000000000E+05,      /* J = 10 */
(PID.TID 0000.0001)                 1.900000000000000E+05,      /* J = 11 */
(PID.TID 0000.0001)                 2.100000000000000E+05,      /* J = 12 */
(PID.TID 0000.0001)                 2.300000000000000E+05,      /* J = 13 */
(PID.TID 0000.0001)                 2.500000000000000E+05,      /* J = 14 */
(PID.TID 0000.0001)                 2.700000000000000E+05,      /* J = 15 */
(PID.TID 0000.0001)                 2.900000000000000E+05,      /* J = 16 */
(PID.TID 0000.0001)                 3.100000000000000E+05,      /* J = 17 */
(PID.TID 0000.0001)                 3.300000000000000E+05,      /* J = 18 */
(PID.TID 0000.0001)                 3.500000000000000E+05,      /* J = 19 */
(PID.TID 0000.0001)                 3.700000000000000E+05,      /* J = 20 */
(PID.TID 0000.0001)                 3.900000000000000E+05,      /* J = 21 */
(PID.TID 0000.0001)                 4.100000000000000E+05,      /* J = 22 */
(PID.TID 0000.0001)                 4.300000000000000E+05,      /* J = 23 */
(PID.TID 0000.0001)                 4.500000000000000E+05,      /* J = 24 */
(PID.TID 0000.0001)                 4.700000000000000E+05,      /* J = 25 */
(PID.TID 0000.0001)                 4.900000000000000E+05,      /* J = 26 */
(PID.TID 0000.0001)                 5.100000000000000E+05,      /* J = 27 */
(PID.TID 0000.0001)                 5.300000000000000E+05,      /* J = 28 */
(PID.TID 0000.0001)                 5.500000000000000E+05,      /* J = 29 */
(PID.TID 0000.0001)                 5.700000000000000E+05,      /* J = 30 */
(PID.TID 0000.0001)                 5.900000000000000E+05,      /* J = 31 */
(PID.TID 0000.0001)                 6.100000000000000E+05,      /* J = 32 */
(PID.TID 0000.0001)                 6.300000000000000E+05,      /* J = 33 */
(PID.TID 0000.0001)                 6.500000000000000E+05,      /* J = 34 */
(PID.TID 0000.0001)                 6.700000000000000E+05,      /* J = 35 */
(PID.TID 0000.0001)                 6.900000000000000E+05,      /* J = 36 */
(PID.TID 0000.0001)                 7.100000000000000E+05,      /* J = 37 */
(PID.TID 0000.0001)                 7.300000000000000E+05,      /* J = 38 */
(PID.TID 0000.0001)                 7.500000000000000E+05,      /* J = 39 */
(PID.TID 0000.0001)                 7.700000000000000E+05,      /* J = 40 */
(PID.TID 0000.0001)                 7.900000000000000E+05,      /* J = 41 */
(PID.TID 0000.0001)                 8.100000000000000E+05,      /* J = 42 */
(PID.TID 0000.0001)                 8.300000000000000E+05,      /* J = 43 */
(PID.TID 0000.0001)                 8.500000000000000E+05,      /* J = 44 */
(PID.TID 0000.0001)                 8.700000000000000E+05,      /* J = 45 */
(PID.TID 0000.0001)                 8.900000000000000E+05,      /* J = 46 */
(PID.TID 0000.0001)                 9.100000000000000E+05,      /* J = 47 */
(PID.TID 0000.0001)                 9.300000000000000E+05,      /* J = 48 */
(PID.TID 0000.0001)                 9.500000000000000E+05,      /* J = 49 */
(PID.TID 0000.0001)                 9.700000000000000E+05,      /* J = 50 */
(PID.TID 0000.0001)                 9.900000000000000E+05,      /* J = 51 */
(PID.TID 0000.0001)                 1.010000000000000E+06,      /* J = 52 */
(PID.TID 0000.0001)                 1.030000000000000E+06,      /* J = 53 */
(PID.TID 0000.0001)                 1.050000000000000E+06,      /* J = 54 */
(PID.TID 0000.0001)                 1.070000000000000E+06,      /* J = 55 */
(PID.TID 0000.0001)                 1.090000000000000E+06,      /* J = 56 */
(PID.TID 0000.0001)                 1.110000000000000E+06,      /* J = 57 */
(PID.TID 0000.0001)                 1.130000000000000E+06,      /* J = 58 */
(PID.TID 0000.0001)                 1.150000000000000E+06,      /* J = 59 */
(PID.TID 0000.0001)                 1.170000000000000E+06,      /* J = 60 */
(PID.TID 0000.0001)                 1.190000000000000E+06,      /* J = 61 */
(PID.TID 0000.0001)                 1.210000000000000E+06       /* J = 62 */
(PID.TID 0000.0001)     ;
(PID.TID 0000.0001) rcoord = /* P-point R coordinate (  units of r ) */
(PID.TID 0000.0001)                -2.500000000000000E+03       /* K =  1 */
(PID.TID 0000.0001)     ;
(PID.TID 0000.0001) rF =   /* W-Interf. R coordinate (  units of r ) */
(PID.TID 0000.0001)                 0.000000000000000E+00,      /* K =  1 */
(PID.TID 0000.0001)                -5.000000000000000E+03       /* K =  2 */
(PID.TID 0000.0001)     ;
(PID.TID 0000.0001) deepFacC = /* deep-model grid factor @ cell-Center (-) */
(PID.TID 0000.0001)                 1.000000000000000E+00       /* K =  1 */
(PID.TID 0000.0001)     ;
(PID.TID 0000.0001) deepFacF = /* deep-model grid factor @ W-Interface (-) */
(PID.TID 0000.0001)     2 @  1.000000000000000E+00              /* K =  1:  2 */
(PID.TID 0000.0001)     ;
(PID.TID 0000.0001) rVel2wUnit = /* convert units: rVel -> wSpeed (=1 if z-coord)*/
(PID.TID 0000.0001)     2 @  1.000000000000000E+00              /* K =  1:  2 */
(PID.TID 0000.0001)     ;
(PID.TID 0000.0001) wUnit2rVel = /* convert units: wSpeed -> rVel (=1 if z-coord)*/
(PID.TID 0000.0001)     2 @  1.000000000000000E+00              /* K =  1:  2 */
(PID.TID 0000.0001)     ;
(PID.TID 0000.0001) dBdrRef = /* Vertical grad. of reference buoyancy [(m/s/r)^2] */
(PID.TID 0000.0001)                 0.000000000000000E+00       /* K =  1 */
(PID.TID 0000.0001)     ;
(PID.TID 0000.0001) rotateGrid = /* use rotated grid ( True/False ) */
(PID.TID 0000.0001)                   F
(PID.TID 0000.0001)     ;
(PID.TID 0000.0001) phiEuler = /* Euler angle, rotation about original z-coordinate [rad] */
(PID.TID 0000.0001)                 0.000000000000000E+00
(PID.TID 0000.0001)     ;
(PID.TID 0000.0001) thetaEuler = /* Euler angle, rotation about new x-coordinate [rad] */
(PID.TID 0000.0001)                 0.000000000000000E+00
(PID.TID 0000.0001)     ;
(PID.TID 0000.0001) psiEuler = /* Euler angle, rotation about new z-coordinate [rad] */
(PID.TID 0000.0001)                 0.000000000000000E+00
(PID.TID 0000.0001)     ;
(PID.TID 0000.0001) dxF =  /* dxF(:,1,:,1) ( units: m ) */
(PID.TID 0000.0001)    62 @  2.000000000000000E+04              /* I =  1: 62 */
(PID.TID 0000.0001)     ;
(PID.TID 0000.0001) dxF =  /* dxF(1,:,1,:) ( units: m ) */
(PID.TID 0000.0001)    62 @  2.000000000000000E+04              /* J =  1: 62 */
(PID.TID 0000.0001)     ;
(PID.TID 0000.0001) dyF =  /* dyF(:,1,:,1) ( units: m ) */
(PID.TID 0000.0001)    62 @  2.000000000000000E+04              /* I =  1: 62 */
(PID.TID 0000.0001)     ;
(PID.TID 0000.0001) dyF =  /* dyF(1,:,1,:) ( units: m ) */
(PID.TID 0000.0001)    62 @  2.000000000000000E+04              /* J =  1: 62 */
(PID.TID 0000.0001)     ;
(PID.TID 0000.0001) dxG =  /* dxG(:,1,:,1) ( units: m ) */
(PID.TID 0000.0001)    62 @  2.000000000000000E+04              /* I =  1: 62 */
(PID.TID 0000.0001)     ;
(PID.TID 0000.0001) dxG =  /* dxG(1,:,1,:) ( units: m ) */
(PID.TID 0000.0001)    62 @  2.000000000000000E+04              /* J =  1: 62 */
(PID.TID 0000.0001)     ;
(PID.TID 0000.0001) dyG =  /* dyG(:,1,:,1) ( units: m ) */
(PID.TID 0000.0001)    62 @  2.000000000000000E+04              /* I =  1: 62 */
(PID.TID 0000.0001)     ;
(PID.TID 0000.0001) dyG =  /* dyG(1,:,1,:) ( units: m ) */
(PID.TID 0000.0001)    62 @  2.000000000000000E+04              /* J =  1: 62 */
(PID.TID 0000.0001)     ;
(PID.TID 0000.0001) dxC =  /* dxC(:,1,:,1) ( units: m ) */
(PID.TID 0000.0001)    62 @  2.000000000000000E+04              /* I =  1: 62 */
(PID.TID 0000.0001)     ;
(PID.TID 0000.0001) dxC =  /* dxC(1,:,1,:) ( units: m ) */
(PID.TID 0000.0001)    62 @  2.000000000000000E+04              /* J =  1: 62 */
(PID.TID 0000.0001)     ;
(PID.TID 0000.0001) dyC =  /* dyC(:,1,:,1) ( units: m ) */
(PID.TID 0000.0001)    62 @  2.000000000000000E+04              /* I =  1: 62 */
(PID.TID 0000.0001)     ;
(PID.TID 0000.0001) dyC =  /* dyC(1,:,1,:) ( units: m ) */
(PID.TID 0000.0001)    62 @  2.000000000000000E+04              /* J =  1: 62 */
(PID.TID 0000.0001)     ;
(PID.TID 0000.0001) dxV =  /* dxV(:,1,:,1) ( units: m ) */
(PID.TID 0000.0001)    62 @  2.000000000000000E+04              /* I =  1: 62 */
(PID.TID 0000.0001)     ;
(PID.TID 0000.0001) dxV =  /* dxV(1,:,1,:) ( units: m ) */
(PID.TID 0000.0001)    62 @  2.000000000000000E+04              /* J =  1: 62 */
(PID.TID 0000.0001)     ;
(PID.TID 0000.0001) dyU =  /* dyU(:,1,:,1) ( units: m ) */
(PID.TID 0000.0001)    62 @  2.000000000000000E+04              /* I =  1: 62 */
(PID.TID 0000.0001)     ;
(PID.TID 0000.0001) dyU =  /* dyU(1,:,1,:) ( units: m ) */
(PID.TID 0000.0001)    62 @  2.000000000000000E+04              /* J =  1: 62 */
(PID.TID 0000.0001)     ;
(PID.TID 0000.0001) rA  =  /* rA (:,1,:,1) ( units: m^2 ) */
(PID.TID 0000.0001)    62 @  4.000000000000000E+08              /* I =  1: 62 */
(PID.TID 0000.0001)     ;
(PID.TID 0000.0001) rA  =  /* rA (1,:,1,:) ( units: m^2 ) */
(PID.TID 0000.0001)    62 @  4.000000000000000E+08              /* J =  1: 62 */
(PID.TID 0000.0001)     ;
(PID.TID 0000.0001) rAw =  /* rAw(:,1,:,1) ( units: m^2 ) */
(PID.TID 0000.0001)    62 @  4.000000000000000E+08              /* I =  1: 62 */
(PID.TID 0000.0001)     ;
(PID.TID 0000.0001) rAw =  /* rAw(1,:,1,:) ( units: m^2 ) */
(PID.TID 0000.0001)    62 @  4.000000000000000E+08              /* J =  1: 62 */
(PID.TID 0000.0001)     ;
(PID.TID 0000.0001) rAs =  /* rAs(:,1,:,1) ( units: m^2 ) */
(PID.TID 0000.0001)    62 @  4.000000000000000E+08              /* I =  1: 62 */
(PID.TID 0000.0001)     ;
(PID.TID 0000.0001) rAs =  /* rAs(1,:,1,:) ( units: m^2 ) */
(PID.TID 0000.0001)    62 @  4.000000000000000E+08              /* J =  1: 62 */
(PID.TID 0000.0001)     ;
(PID.TID 0000.0001) globalArea = /* Integrated horizontal Area (m^2) */
(PID.TID 0000.0001)                 1.440000000000000E+12
(PID.TID 0000.0001)     ;
(PID.TID 0000.0001) // =======================================================
(PID.TID 0000.0001) // End of Model config. summary
(PID.TID 0000.0001) // =======================================================
(PID.TID 0000.0001) 
(PID.TID 0000.0001) == Packages configuration : Check & print summary ==
(PID.TID 0000.0001) 
(PID.TID 0000.0001) // =======================================================
(PID.TID 0000.0001) // Check Model config. (CONFIG_CHECK):
(PID.TID 0000.0001) // CONFIG_CHECK : Normal End
(PID.TID 0000.0001) // =======================================================
(PID.TID 0000.0001) 
(PID.TID 0000.0001) Start initial hydrostatic pressure computation
(PID.TID 0000.0001) Pressure is predetermined for buoyancyRelation OCEANIC
(PID.TID 0000.0001) 
(PID.TID 0000.0001)  MDS_READ_FIELD: opening global file: windx_cosy.bin
(PID.TID 0000.0001) // =======================================================
(PID.TID 0000.0001) // Model current state
(PID.TID 0000.0001) // =======================================================
(PID.TID 0000.0001) 
(PID.TID 0000.0001) // =======================================================
(PID.TID 0000.0001) // Begin MONITOR dynamic field statistics
(PID.TID 0000.0001) // =======================================================
(PID.TID 0000.0001) %MON time_tsnumber                =                     0
(PID.TID 0000.0001) %MON time_secondsf                =   0.0000000000000E+00
(PID.TID 0000.0001) %MON dynstat_eta_max              =   0.0000000000000E+00
(PID.TID 0000.0001) %MON dynstat_eta_min              =   0.0000000000000E+00
(PID.TID 0000.0001) %MON dynstat_eta_mean             =   0.0000000000000E+00
(PID.TID 0000.0001) %MON dynstat_eta_sd               =   0.0000000000000E+00
(PID.TID 0000.0001) %MON dynstat_eta_del2             =   0.0000000000000E+00
(PID.TID 0000.0001) %MON dynstat_uvel_max             =   0.0000000000000E+00
(PID.TID 0000.0001) %MON dynstat_uvel_min             =   0.0000000000000E+00
(PID.TID 0000.0001) %MON dynstat_uvel_mean            =   0.0000000000000E+00
(PID.TID 0000.0001) %MON dynstat_uvel_sd              =   0.0000000000000E+00
(PID.TID 0000.0001) %MON dynstat_uvel_del2            =   0.0000000000000E+00
(PID.TID 0000.0001) %MON dynstat_vvel_max             =   0.0000000000000E+00
(PID.TID 0000.0001) %MON dynstat_vvel_min             =   0.0000000000000E+00
(PID.TID 0000.0001) %MON dynstat_vvel_mean            =   0.0000000000000E+00
(PID.TID 0000.0001) %MON dynstat_vvel_sd              =   0.0000000000000E+00
(PID.TID 0000.0001) %MON dynstat_vvel_del2            =   0.0000000000000E+00
(PID.TID 0000.0001) %MON dynstat_wvel_max             =   0.0000000000000E+00
(PID.TID 0000.0001) %MON dynstat_wvel_min             =   0.0000000000000E+00
(PID.TID 0000.0001) %MON dynstat_wvel_mean            =   0.0000000000000E+00
(PID.TID 0000.0001) %MON dynstat_wvel_sd              =   0.0000000000000E+00
(PID.TID 0000.0001) %MON dynstat_wvel_del2            =   0.0000000000000E+00
(PID.TID 0000.0001) %MON dynstat_theta_max            =   2.0000000000000E+01
(PID.TID 0000.0001) %MON dynstat_theta_min            =   2.0000000000000E+01
(PID.TID 0000.0001) %MON dynstat_theta_mean           =   2.0000000000000E+01
(PID.TID 0000.0001) %MON dynstat_theta_sd             =   0.0000000000000E+00
(PID.TID 0000.0001) %MON dynstat_theta_del2           =   0.0000000000000E+00
(PID.TID 0000.0001) %MON dynstat_salt_max             =   3.0000000000000E+01
(PID.TID 0000.0001) %MON dynstat_salt_min             =   3.0000000000000E+01
(PID.TID 0000.0001) %MON dynstat_salt_mean            =   3.0000000000000E+01
(PID.TID 0000.0001) %MON dynstat_salt_sd              =   0.0000000000000E+00
(PID.TID 0000.0001) %MON dynstat_salt_del2            =   0.0000000000000E+00
(PID.TID 0000.0001) %MON trAdv_CFL_u_max              =   0.0000000000000E+00
(PID.TID 0000.0001) %MON trAdv_CFL_v_max              =   0.0000000000000E+00
(PID.TID 0000.0001) %MON trAdv_CFL_w_max              =   0.0000000000000E+00
(PID.TID 0000.0001) %MON advcfl_uvel_max              =   0.0000000000000E+00
(PID.TID 0000.0001) %MON advcfl_vvel_max              =   0.0000000000000E+00
(PID.TID 0000.0001) %MON advcfl_wvel_max              =   0.0000000000000E+00
(PID.TID 0000.0001) %MON advcfl_W_hf_max              =   0.0000000000000E+00
(PID.TID 0000.0001) %MON pe_b_mean                    =   0.0000000000000E+00
(PID.TID 0000.0001) %MON ke_max                       =   0.0000000000000E+00
(PID.TID 0000.0001) %MON ke_mean                      =   0.0000000000000E+00
(PID.TID 0000.0001) %MON ke_vol                       =   7.2000000000000E+15
(PID.TID 0000.0001) %MON vort_r_min                   =   0.0000000000000E+00
(PID.TID 0000.0001) %MON vort_r_max                   =   0.0000000000000E+00
(PID.TID 0000.0001) %MON vort_a_mean                  =   1.0600000000000E-04
(PID.TID 0000.0001) %MON vort_a_sd                    =   3.5177554171049E-06
(PID.TID 0000.0001) %MON vort_p_mean                  =   1.1130000000000E-04
(PID.TID 0000.0001) %MON vort_p_sd                    =   4.0927537591861E-05
(PID.TID 0000.0001) %MON surfExpan_theta_mean         =   0.0000000000000E+00
(PID.TID 0000.0001) %MON surfExpan_salt_mean          =   0.0000000000000E+00
(PID.TID 0000.0001) // =======================================================
(PID.TID 0000.0001) // End MONITOR dynamic field statistics
(PID.TID 0000.0001) // =======================================================
(PID.TID 0000.0001) SOLVE_FOR_PRESSURE: putPmEinXvector =    F
 cg2d: Sum(rhs),rhsMax =   0.00000000000000E+00  3.99862915277481E-04
 cg2d: Sum(rhs),rhsMax =  -2.88657986402541E-15  4.51170334505832E-04
 cg2d: Sum(rhs),rhsMax =   8.40966296600243E-10  4.69500491569728E-04
 cg2d: Sum(rhs),rhsMax =   1.07877695665337E-09  4.87249555766483E-04
 cg2d: Sum(rhs),rhsMax =   1.31611976872392E-09  5.03746102821348E-04
 cg2d: Sum(rhs),rhsMax =   1.64350322240381E-09  5.20990584498866E-04
 cg2d: Sum(rhs),rhsMax =   1.76783487848553E-09  5.41620638207755E-04
 cg2d: Sum(rhs),rhsMax =   1.86995319229055E-09  5.66631268108299E-04
 cg2d: Sum(rhs),rhsMax =   2.20969642583668E-09  5.96007458958334E-04
 cg2d: Sum(rhs),rhsMax =   2.43778208730561E-09  6.28629464078631E-04
 cg2d: Sum(rhs),rhsMax =   2.61554355951432E-09  6.63144597717182E-04
 cg2d: Sum(rhs),rhsMax =   2.81093792686704E-09  6.98566979095827E-04
 cg2d: Sum(rhs),rhsMax =   2.91806234731240E-09  7.34769350148957E-04
 cg2d: Sum(rhs),rhsMax =   2.97473279342597E-09  7.71589635813405E-04
 cg2d: Sum(rhs),rhsMax =   3.06321235044038E-09  8.08875090026339E-04
 cg2d: Sum(rhs),rhsMax =   3.12053261009027E-09  8.47266762713712E-04
 cg2d: Sum(rhs),rhsMax =   3.15377751691770E-09  8.86276671641232E-04
 cg2d: Sum(rhs),rhsMax =   3.28689120365766E-09  9.26183146013228E-04
 cg2d: Sum(rhs),rhsMax =   3.41774553103136E-09  9.66364645886002E-04
 cg2d: Sum(rhs),rhsMax =   3.53712209522072E-09  1.00746164522735E-03
 cg2d: Sum(rhs),rhsMax =   3.64838670385836E-09  1.04854382695000E-03
 cg2d: Sum(rhs),rhsMax =   3.75327646739976E-09  1.09012182262526E-03
 cg2d: Sum(rhs),rhsMax =   3.85397874724802E-09  1.13217706579594E-03
 cg2d: Sum(rhs),rhsMax =   3.95303750844178E-09  1.17424954864214E-03
 cg2d: Sum(rhs),rhsMax =   4.04386579777594E-09  1.21650277094484E-03
 cg2d: Sum(rhs),rhsMax =   4.13672379684371E-09  1.25950318840236E-03
 cg2d: Sum(rhs),rhsMax =   4.22935680921555E-09  1.30252916964535E-03
 cg2d: Sum(rhs),rhsMax =   4.32082100654263E-09  1.34557650707381E-03
 cg2d: Sum(rhs),rhsMax =   4.60230656362803E-09  1.38864253343555E-03
 cg2d: Sum(rhs),rhsMax =   4.82204684515430E-09  1.43235655662721E-03
 cg2d: Sum(rhs),rhsMax =   4.85659976123820E-09  1.47621813961206E-03
 cg2d: Sum(rhs),rhsMax =   4.85299025965169E-09  1.52010008262466E-03
 cg2d: Sum(rhs),rhsMax =   6.27768201311163E-09  1.56400315347159E-03
 cg2d: Sum(rhs),rhsMax =   6.46340123089395E-09  1.60792760924531E-03
 cg2d: Sum(rhs),rhsMax =   6.65852614711859E-09  1.65187334335572E-03
 cg2d: Sum(rhs),rhsMax =   7.20947990195953E-09  1.69642980407789E-03
 cg2d: Sum(rhs),rhsMax =   8.38903674305058E-09  1.74105931085125E-03
 cg2d: Sum(rhs),rhsMax =   1.04441049975090E-08  1.78571011547657E-03
 cg2d: Sum(rhs),rhsMax =   1.22080621722809E-08  1.83038228923236E-03
 cg2d: Sum(rhs),rhsMax =   1.39413942612521E-08  1.87507593976622E-03
 cg2d: Sum(rhs),rhsMax =   1.57349214491287E-08  1.91979115604797E-03
 cg2d: Sum(rhs),rhsMax =   1.75585309902804E-08  1.96452799234155E-03
 cg2d: Sum(rhs),rhsMax =   1.93355557120967E-08  2.00928647687812E-03
 cg2d: Sum(rhs),rhsMax =   2.10062687244772E-08  2.05425063533071E-03
 cg2d: Sum(rhs),rhsMax =   2.25518260732471E-08  2.09957608906101E-03
[...]
(PID.TID 0000.0001) %MON pe_b_mean                    =   3.3557017555454E-07
(PID.TID 0000.0001) %MON ke_max                       =   3.7159274994548E-03
(PID.TID 0000.0001) %MON ke_mean                      =   1.3400277436162E-04
(PID.TID 0000.0001) %MON ke_vol                       =   7.2000000000000E+15
(PID.TID 0000.0001) %MON vort_r_min                   =  -1.4793148896302E-06
(PID.TID 0000.0001) %MON vort_r_max                   =   2.3848419146408E-06
(PID.TID 0000.0001) %MON vort_a_mean                  =   1.0600000000000E-04
(PID.TID 0000.0001) %MON vort_a_sd                    =   3.5370289953125E-06
(PID.TID 0000.0001) %MON vort_p_mean                  =   1.1130000000000E-04
(PID.TID 0000.0001) %MON vort_p_sd                    =   4.1151866980350E-05
(PID.TID 0000.0001) %MON surfExpan_theta_mean         =  -4.2020550002538E-20
(PID.TID 0000.0001) %MON surfExpan_salt_mean          =  -6.3031772394121E-20
(PID.TID 0000.0001) // =======================================================
(PID.TID 0000.0001) // End MONITOR dynamic field statistics
(PID.TID 0000.0001) // =======================================================
 cg2d: Sum(rhs),rhsMax =  -4.35423004561952E-06  1.43663823436466E-01
 cg2d: Sum(rhs),rhsMax =  -4.95473178267845E-06  1.43666372831491E-01
 cg2d: Sum(rhs),rhsMax =  -5.55504448385234E-06  1.43668914222742E-01
 cg2d: Sum(rhs),rhsMax =  -6.15516455805629E-06  1.43671447605126E-01
 cg2d: Sum(rhs),rhsMax =  -6.75508805253640E-06  1.43673972973569E-01
 cg2d: Sum(rhs),rhsMax =  -7.35481133440179E-06  1.43676490323012E-01
 cg2d: Sum(rhs),rhsMax =  -7.95433038528956E-06  1.43678999648416E-01
 cg2d: Sum(rhs),rhsMax =  -8.55364145329642E-06  1.43681500944757E-01
 cg2d: Sum(rhs),rhsMax =  -9.15274058900083E-06  1.43683994207031E-01
 cg2d: Sum(rhs),rhsMax =  -9.75162378591063E-06  1.43686479430249E-01
 cg2d: Sum(rhs),rhsMax =  -1.03502870897826E-05  1.43688956609439E-01
 cg2d: Sum(rhs),rhsMax =  -1.09487265574923E-05  1.43691425739651E-01
 cg2d: Sum(rhs),rhsMax =  -1.15469381376816E-05  1.43693886815946E-01
 cg2d: Sum(rhs),rhsMax =  -1.21449175637762E-05  1.43696339833407E-01
 cg2d: Sum(rhs),rhsMax =  -1.27426609052494E-05  1.43698784787133E-01
 cg2d: Sum(rhs),rhsMax =  -1.33401638572426E-05  1.43701221672239E-01
 cg2d: Sum(rhs),rhsMax =  -1.39374223043038E-05  1.43703650483861E-01
 cg2d: Sum(rhs),rhsMax =  -1.45344319187959E-05  1.43706071217148E-01
 cg2d: Sum(rhs),rhsMax =  -1.51311885833363E-05  1.43708483867271E-01
 cg2d: Sum(rhs),rhsMax =  -1.57276879288676E-05  1.43710888429413E-01
 cg2d: Sum(rhs),rhsMax =  -1.63239255088835E-05  1.43713284898781E-01
 cg2d: Sum(rhs),rhsMax =  -1.69198970016524E-05  1.43715673270595E-01
 cg2d: Sum(rhs),rhsMax =  -1.75155980107356E-05  1.43718053540093E-01
 cg2d: Sum(rhs),rhsMax =  -1.81110239443998E-05  1.43720425702531E-01
 cg2d: Sum(rhs),rhsMax =  -1.87061704167019E-05  1.43722789753185E-01
 cg2d: Sum(rhs),rhsMax =  -1.93010328190333E-05  1.43725145687344E-01
 cg2d: Sum(rhs),rhsMax =  -1.98956065305808E-05  1.43727493500318E-01
 cg2d: Sum(rhs),rhsMax =  -2.04898869321773E-05  1.43729833187433E-01
 cg2d: Sum(rhs),rhsMax =  -2.10838692194393E-05  1.43732164744033E-01
 cg2d: Sum(rhs),rhsMax =  -2.16775488295854E-05  1.43734488165481E-01
 cg2d: Sum(rhs),rhsMax =  -2.22709208200535E-05  1.43736803447154E-01
 cg2d: Sum(rhs),rhsMax =  -2.28639805171975E-05  1.43739110584450E-01
 cg2d: Sum(rhs),rhsMax =  -2.34567230596033E-05  1.43741409572783E-01
 cg2d: Sum(rhs),rhsMax =  -2.40491433872213E-05  1.43743700407585E-01
 cg2d: Sum(rhs),rhsMax =  -2.46412366487385E-05  1.43745983084308E-01
 cg2d: Sum(rhs),rhsMax =  -2.52329976598740E-05  1.43748257598416E-01
 cg2d: Sum(rhs),rhsMax =  -2.58244215850835E-05  1.43750523945395E-01
 cg2d: Sum(rhs),rhsMax =  -2.64155030638234E-05  1.43752782120748E-01
 cg2d: Sum(rhs),rhsMax =  -2.70062370378221E-05  1.43755032119995E-01
 cg2d: Sum(rhs),rhsMax =  -2.75966183287766E-05  1.43757273938675E-01
 cg2d: Sum(rhs),rhsMax =  -2.81866415122716E-05  1.43759507572342E-01
 cg2d: Sum(rhs),rhsMax =  -2.87763014301416E-05  1.43761733016572E-01
 cg2d: Sum(rhs),rhsMax =  -2.93655926655936E-05  1.43763950266954E-01
 cg2d: Sum(rhs),rhsMax =  -2.99545096483266E-05  1.43766159319097E-01
 cg2d: Sum(rhs),rhsMax =  -3.05430469622822E-05  1.43768360168628E-01
 cg2d: Sum(rhs),rhsMax =  -3.11311991388992E-05  1.43770552811193E-01
 cg2d: Sum(rhs),rhsMax =  -3.17189604531467E-05  1.43772737242451E-01
 cg2d: Sum(rhs),rhsMax =  -3.23063251488767E-05  1.43774913458084E-01
 cg2d: Sum(rhs),rhsMax =  -3.28932877748525E-05  1.43777081453789E-01
 cg2d: Sum(rhs),rhsMax =  -3.34798422750218E-05  1.43779241225281E-01
 cg2d: Sum(rhs),rhsMax =  -3.40659828757840E-05  1.43781392768294E-01
 cg2d: Sum(rhs),rhsMax =  -3.46517036381383E-05  1.43783536078578E-01
 cg2d: Sum(rhs),rhsMax =  -3.52369985853283E-05  1.43785671151904E-01
 cg2d: Sum(rhs),rhsMax =  -3.58218617326827E-05  1.43787797984057E-01
 cg2d: Sum(rhs),rhsMax =  -3.64062868724894E-05  1.43789916570842E-01
 cg2d: Sum(rhs),rhsMax =  -3.69902678976587E-05  1.43792026908081E-01
 cg2d: Sum(rhs),rhsMax =  -3.75737983714626E-05  1.43794128991614E-01
 cg2d: Sum(rhs),rhsMax =  -3.81568721914138E-05  1.43796222817299E-01
 cg2d: Sum(rhs),rhsMax =  -3.87394829028213E-05  1.43798308381014E-01
 cg2d: Sum(rhs),rhsMax =  -3.93216238268089E-05  1.43800385678649E-01
 cg2d: Sum(rhs),rhsMax =  -3.99032886405941E-05  1.43802454706119E-01
 cg2d: Sum(rhs),rhsMax =  -4.04844706708507E-05  1.43804515459352E-01
 cg2d: Sum(rhs),rhsMax =  -4.10651630468042E-05  1.43806567934296E-01
 cg2d: Sum(rhs),rhsMax =  -4.16453592496100E-05  1.43808612126917E-01
 cg2d: Sum(rhs),rhsMax =  -4.22250521030414E-05  1.43810648033196E-01
 cg2d: Sum(rhs),rhsMax =  -4.28042348804654E-05  1.43812675649137E-01
 cg2d: Sum(rhs),rhsMax =  -4.33829004877918E-05  1.43814694970758E-01
 cg2d: Sum(rhs),rhsMax =  -4.39610417261056E-05  1.43816705994096E-01
 cg2d: Sum(rhs),rhsMax =  -4.45386514779308E-05  1.43818708715206E-01
 cg2d: Sum(rhs),rhsMax =  -4.51157224395501E-05  1.43820703130161E-01
 cg2d: Sum(rhs),rhsMax =  -4.56922470943250E-05  1.43822689235053E-01
 cg2d: Sum(rhs),rhsMax =  -4.62682181333537E-05  1.43824667025991E-01
(PID.TID 0000.0001)      cg2d_init_res =   4.48235985702276E-04
(PID.TID 0000.0001)      cg2d_iters(min,last) =      -1      74
(PID.TID 0000.0001)      cg2d_last_res =   9.41179602735483E-08
(PID.TID 0000.0001) // =======================================================
(PID.TID 0000.0001) // Begin MONITOR dynamic field statistics
(PID.TID 0000.0001) // =======================================================
(PID.TID 0000.0001) %MON time_tsnumber                =                 21600
(PID.TID 0000.0001) %MON time_secondsf                =   2.5920000000000E+07
(PID.TID 0000.0001) %MON dynstat_eta_max              =   4.9809019161353E-02
(PID.TID 0000.0001) %MON dynstat_eta_min              =  -2.1811574872363E-02
(PID.TID 0000.0001) %MON dynstat_eta_mean             =   3.3686807155430E-08
(PID.TID 0000.0001) %MON dynstat_eta_sd               =   1.8464629502824E-02
(PID.TID 0000.0001) %MON dynstat_eta_del2             =   1.7749306125032E-05
(PID.TID 0000.0001) %MON dynstat_uvel_max             =   3.2028476450695E-02
(PID.TID 0000.0001) %MON dynstat_uvel_min             =  -1.6242790239498E-02
(PID.TID 0000.0001) %MON dynstat_uvel_mean            =  -3.4630008147125E-08
(PID.TID 0000.0001) %MON dynstat_uvel_sd              =   6.9527239983941E-03
(PID.TID 0000.0001) %MON dynstat_uvel_del2            =   8.1074098686390E-06
(PID.TID 0000.0001) %MON dynstat_vvel_max             =   8.6337088800958E-02
(PID.TID 0000.0001) %MON dynstat_vvel_min             =  -2.9247141630889E-02
(PID.TID 0000.0001) %MON dynstat_vvel_mean            =  -5.3020774482177E-10
(PID.TID 0000.0001) %MON dynstat_vvel_sd              =   1.4975494373202E-02
(PID.TID 0000.0001) %MON dynstat_vvel_del2            =   7.4999723280483E-05
(PID.TID 0000.0001) %MON dynstat_wvel_max             =   3.8800632668426E-09
(PID.TID 0000.0001) %MON dynstat_wvel_min             =  -7.4714767606929E-09
(PID.TID 0000.0001) %MON dynstat_wvel_mean            =  -2.1952407930965E-21
(PID.TID 0000.0001) %MON dynstat_wvel_sd              =   3.0445879300273E-09
(PID.TID 0000.0001) %MON dynstat_wvel_del2            =   9.3635787953295E-13
(PID.TID 0000.0001) %MON dynstat_theta_max            =   2.0000000000000E+01
(PID.TID 0000.0001) %MON dynstat_theta_min            =   2.0000000000000E+01
(PID.TID 0000.0001) %MON dynstat_theta_mean           =   2.0000000000000E+01
(PID.TID 0000.0001) %MON dynstat_theta_sd             =   0.0000000000000E+00
(PID.TID 0000.0001) %MON dynstat_theta_del2           =   0.0000000000000E+00
(PID.TID 0000.0001) %MON dynstat_salt_max             =   3.0000000000000E+01
(PID.TID 0000.0001) %MON dynstat_salt_min             =   3.0000000000000E+01
(PID.TID 0000.0001) %MON dynstat_salt_mean            =   3.0000000000000E+01
(PID.TID 0000.0001) %MON dynstat_salt_sd              =   0.0000000000000E+00
(PID.TID 0000.0001) %MON dynstat_salt_del2            =   0.0000000000000E+00
(PID.TID 0000.0001) %MON trAdv_CFL_u_max              =   1.9216653551746E-03
(PID.TID 0000.0001) %MON trAdv_CFL_v_max              =   5.1801387543937E-03
(PID.TID 0000.0001) %MON trAdv_CFL_w_max              =   9.3192513696849E-10
(PID.TID 0000.0001) %MON advcfl_uvel_max              =   1.9217085870417E-03
(PID.TID 0000.0001) %MON advcfl_vvel_max              =   5.1802253280575E-03
(PID.TID 0000.0001) %MON advcfl_wvel_max              =   3.5863088451326E-09
(PID.TID 0000.0001) %MON advcfl_W_hf_max              =   0.0000000000000E+00
(PID.TID 0000.0001) %MON pe_b_mean                    =   3.3446463436680E-07
(PID.TID 0000.0001) %MON ke_max                       =   3.7262741748912E-03
(PID.TID 0000.0001) %MON ke_mean                      =   1.3403118633776E-04
(PID.TID 0000.0001) %MON ke_vol                       =   7.2000000000000E+15
(PID.TID 0000.0001) %MON vort_r_min                   =  -1.4818616561840E-06
(PID.TID 0000.0001) %MON vort_r_max                   =   2.3868027392937E-06
(PID.TID 0000.0001) %MON vort_a_mean                  =   1.0600000000000E-04
(PID.TID 0000.0001) %MON vort_a_sd                    =   3.5370718708984E-06
(PID.TID 0000.0001) %MON vort_p_mean                  =   1.1130000000000E-04
(PID.TID 0000.0001) %MON vort_p_sd                    =   4.1151783331531E-05
(PID.TID 0000.0001) %MON surfExpan_theta_mean         =  -4.3901909268445E-20
(PID.TID 0000.0001) %MON surfExpan_salt_mean          =  -6.5854442886525E-20
(PID.TID 0000.0001) // =======================================================
(PID.TID 0000.0001) // End MONITOR dynamic field statistics
(PID.TID 0000.0001) // =======================================================
(PID.TID 0000.0001) %CHECKPOINT     21600 ckptA
(PID.TID 0000.0001)   Seconds in section "ALL                    [THE_MODEL_MAIN]":
(PID.TID 0000.0001)           User time:   154.484662583098
(PID.TID 0000.0001)         System time:  0.000000000000000E+000
(PID.TID 0000.0001)     Wall clock time:   200.980721950531
(PID.TID 0000.0001)          No. starts:           1
(PID.TID 0000.0001)           No. stops:           1
(PID.TID 0000.0001)   Seconds in section "INITIALISE_FIXED       [THE_MODEL_MAIN]":
(PID.TID 0000.0001)           User time:  9.949998930096626E-003
(PID.TID 0000.0001)         System time:  0.000000000000000E+000
(PID.TID 0000.0001)     Wall clock time:  0.178002834320068
(PID.TID 0000.0001)          No. starts:           1
(PID.TID 0000.0001)           No. stops:           1
(PID.TID 0000.0001)   Seconds in section "THE_MAIN_LOOP          [THE_MODEL_MAIN]":
(PID.TID 0000.0001)           User time:   154.474681582302
(PID.TID 0000.0001)         System time:  0.000000000000000E+000
(PID.TID 0000.0001)     Wall clock time:   200.802664041519
(PID.TID 0000.0001)          No. starts:           1
(PID.TID 0000.0001)           No. stops:           1
(PID.TID 0000.0001)   Seconds in section "INITIALISE_VARIA    [THE_MAIN_LOOP]":
(PID.TID 0000.0001)           User time:  4.813000559806824E-003
(PID.TID 0000.0001)         System time:  0.000000000000000E+000
(PID.TID 0000.0001)     Wall clock time:  3.924012184143066E-002
(PID.TID 0000.0001)          No. starts:           1
(PID.TID 0000.0001)           No. stops:           1
(PID.TID 0000.0001)   Seconds in section "MAIN LOOP           [THE_MAIN_LOOP]":
(PID.TID 0000.0001)           User time:   154.469851583242
(PID.TID 0000.0001)         System time:  0.000000000000000E+000
(PID.TID 0000.0001)     Wall clock time:   200.763368844986
(PID.TID 0000.0001)          No. starts:           1
(PID.TID 0000.0001)           No. stops:           1
(PID.TID 0000.0001)   Seconds in section "MAIN_DO_LOOP        [THE_MAIN_LOOP]":
(PID.TID 0000.0001)           User time:   154.249120086432
(PID.TID 0000.0001)         System time:  0.000000000000000E+000
(PID.TID 0000.0001)     Wall clock time:   200.541573524475
(PID.TID 0000.0001)          No. starts:       21600
(PID.TID 0000.0001)           No. stops:       21600
(PID.TID 0000.0001)   Seconds in section "FORWARD_STEP        [MAIN_DO_LOOP]":
(PID.TID 0000.0001)           User time:   153.797865226865
(PID.TID 0000.0001)         System time:  0.000000000000000E+000
(PID.TID 0000.0001)     Wall clock time:   200.085268020630
(PID.TID 0000.0001)          No. starts:       21600
(PID.TID 0000.0001)           No. stops:       21600
(PID.TID 0000.0001)   Seconds in section "LOAD_FIELDS_DRIVER  [FORWARD_STEP]":
(PID.TID 0000.0001)           User time:  0.670414578169584
(PID.TID 0000.0001)         System time:  0.000000000000000E+000
(PID.TID 0000.0001)     Wall clock time:  0.677631378173828
(PID.TID 0000.0001)          No. starts:       21600
(PID.TID 0000.0001)           No. stops:       21600
(PID.TID 0000.0001)   Seconds in section "EXTERNAL_FLDS_LOAD [LOAD_FLDS_DRIVER]":
(PID.TID 0000.0001)           User time:  0.226246032863855
(PID.TID 0000.0001)         System time:  0.000000000000000E+000
(PID.TID 0000.0001)     Wall clock time:  0.228665828704834
(PID.TID 0000.0001)          No. starts:       21600
(PID.TID 0000.0001)           No. stops:       21600
(PID.TID 0000.0001)   Seconds in section "DO_ATMOSPHERIC_PHYS [FORWARD_STEP]":
(PID.TID 0000.0001)           User time:  0.220771435648203
(PID.TID 0000.0001)         System time:  0.000000000000000E+000
(PID.TID 0000.0001)     Wall clock time:  0.222735404968262
(PID.TID 0000.0001)          No. starts:       21600
(PID.TID 0000.0001)           No. stops:       21600
(PID.TID 0000.0001)   Seconds in section "DO_OCEANIC_PHYS     [FORWARD_STEP]":
(PID.TID 0000.0001)           User time:   2.75429332628846
(PID.TID 0000.0001)         System time:  0.000000000000000E+000
(PID.TID 0000.0001)     Wall clock time:   2.79320549964905
(PID.TID 0000.0001)          No. starts:       21600
(PID.TID 0000.0001)           No. stops:       21600
(PID.TID 0000.0001)   Seconds in section "THERMODYNAMICS      [FORWARD_STEP]":
(PID.TID 0000.0001)           User time:   1.39413150399923
(PID.TID 0000.0001)         System time:  0.000000000000000E+000
(PID.TID 0000.0001)     Wall clock time:   1.41548585891724
(PID.TID 0000.0001)          No. starts:       21600
(PID.TID 0000.0001)           No. stops:       21600
(PID.TID 0000.0001)   Seconds in section "DYNAMICS            [FORWARD_STEP]":
(PID.TID 0000.0001)           User time:   26.6011618785560
(PID.TID 0000.0001)         System time:  0.000000000000000E+000
(PID.TID 0000.0001)     Wall clock time:   26.9388215541840
(PID.TID 0000.0001)          No. starts:       21600
(PID.TID 0000.0001)           No. stops:       21600
(PID.TID 0000.0001)   Seconds in section "SOLVE_FOR_PRESSURE  [FORWARD_STEP]":
(PID.TID 0000.0001)           User time:   113.019758947194
(PID.TID 0000.0001)         System time:  0.000000000000000E+000
(PID.TID 0000.0001)     Wall clock time:   114.187639713287
(PID.TID 0000.0001)          No. starts:       21600
(PID.TID 0000.0001)           No. stops:       21600
(PID.TID 0000.0001)   Seconds in section "MOM_CORRECTION_STEP [FORWARD_STEP]":
(PID.TID 0000.0001)           User time:   2.06803568825126
(PID.TID 0000.0001)         System time:  0.000000000000000E+000
(PID.TID 0000.0001)     Wall clock time:   2.07762384414673
(PID.TID 0000.0001)          No. starts:       21600
(PID.TID 0000.0001)           No. stops:       21600
(PID.TID 0000.0001)   Seconds in section "INTEGR_CONTINUITY   [FORWARD_STEP]":
(PID.TID 0000.0001)           User time:   1.28376847878098
(PID.TID 0000.0001)         System time:  0.000000000000000E+000
(PID.TID 0000.0001)     Wall clock time:   1.29302573204041
(PID.TID 0000.0001)          No. starts:       21600
(PID.TID 0000.0001)           No. stops:       21600
(PID.TID 0000.0001)   Seconds in section "TRC_CORRECTION_STEP [FORWARD_STEP]":
(PID.TID 0000.0001)           User time:  0.224805802106857
(PID.TID 0000.0001)         System time:  0.000000000000000E+000
(PID.TID 0000.0001)     Wall clock time:  0.224980831146240
(PID.TID 0000.0001)          No. starts:       21600
(PID.TID 0000.0001)           No. stops:       21600
(PID.TID 0000.0001)   Seconds in section "BLOCKING_EXCHANGES  [FORWARD_STEP]":
(PID.TID 0000.0001)           User time:  0.584093637764454
(PID.TID 0000.0001)         System time:  0.000000000000000E+000
(PID.TID 0000.0001)     Wall clock time:  0.590178728103638
(PID.TID 0000.0001)          No. starts:       21600
(PID.TID 0000.0001)           No. stops:       21600
(PID.TID 0000.0001)   Seconds in section "MONITOR             [FORWARD_STEP]":
(PID.TID 0000.0001)           User time:  0.558875642716885
(PID.TID 0000.0001)         System time:  0.000000000000000E+000
(PID.TID 0000.0001)     Wall clock time:  0.737068176269531
(PID.TID 0000.0001)          No. starts:       21600
(PID.TID 0000.0001)           No. stops:       21600
(PID.TID 0000.0001)   Seconds in section "DO_THE_MODEL_IO     [FORWARD_STEP]":
(PID.TID 0000.0001)           User time:  0.980444625020027
(PID.TID 0000.0001)         System time:  0.000000000000000E+000
(PID.TID 0000.0001)     Wall clock time:   45.5176668167114
(PID.TID 0000.0001)          No. starts:       21600
(PID.TID 0000.0001)           No. stops:       21600
(PID.TID 0000.0001)   Seconds in section "DO_WRITE_PICKUP     [FORWARD_STEP]":
(PID.TID 0000.0001)           User time:  0.229554038494825
(PID.TID 0000.0001)         System time:  0.000000000000000E+000
(PID.TID 0000.0001)     Wall clock time:  0.259735584259033
(PID.TID 0000.0001)          No. starts:       21600
(PID.TID 0000.0001)           No. stops:       21600
(PID.TID 0000.0001) // ======================================================
(PID.TID 0000.0001) // Tile <-> Tile communication statistics
(PID.TID 0000.0001) // ======================================================
(PID.TID 0000.0001) // o Tile number: 000001
(PID.TID 0000.0001) //         No. X exchanges =              0
(PID.TID 0000.0001) //            Max. X spins =              0
(PID.TID 0000.0001) //            Min. X spins =     1000000000
(PID.TID 0000.0001) //          Total. X spins =              0
(PID.TID 0000.0001) //            Avg. X spins =       0.00E+00
(PID.TID 0000.0001) //         No. Y exchanges =              0
(PID.TID 0000.0001) //            Max. Y spins =              0
(PID.TID 0000.0001) //            Min. Y spins =     1000000000
(PID.TID 0000.0001) //          Total. Y spins =              0
(PID.TID 0000.0001) //            Avg. Y spins =       0.00E+00
(PID.TID 0000.0001) // o Thread number: 000001
(PID.TID 0000.0001) //            No. barriers =        9753674
(PID.TID 0000.0001) //      Max. barrier spins =              1
(PID.TID 0000.0001) //      Min. barrier spins =              1
(PID.TID 0000.0001) //     Total barrier spins =        9753674
(PID.TID 0000.0001) //      Avg. barrier spins =       1.00E+00
PROGRAM MAIN: Execution ended Normally
