(PID.TID 0000.0001) 
(PID.TID 0000.0001) // ======================================================
(PID.TID 0000.0001) //                      MITgcm UV
(PID.TID 0000.0001) //                      =========
(PID.TID 0000.0001) // ======================================================
(PID.TID 0000.0001) // execution environment starting up...
(PID.TID 0000.0001) 
(PID.TID 0000.0001) // MITgcmUV version:  checkpoint67v
(PID.TID 0000.0001) // Build user:        eavesr
(PID.TID 0000.0001) // Build host:        atmlxint3
(PID.TID 0000.0001) // Build date:        Thu 18 Feb 15:12:49 GMT 2021
(PID.TID 0000.0001) 
(PID.TID 0000.0001) // =======================================================
(PID.TID 0000.0001) // Execution Environment parameter file "eedata"
(PID.TID 0000.0001) // =======================================================
(PID.TID 0000.0001) ># Example "eedata" file
(PID.TID 0000.0001) ># Lines beginning "#" are comments
(PID.TID 0000.0001) >#  nTx      :: No. threads per process in X
(PID.TID 0000.0001) >#  nTy      :: No. threads per process in Y
(PID.TID 0000.0001) ># debugMode :: print debug msg (sequence of S/R calls)
(PID.TID 0000.0001) > &EEPARMS
(PID.TID 0000.0001) > nTx=1,
(PID.TID 0000.0001) > nTy=1,
(PID.TID 0000.0001) > &
(PID.TID 0000.0001) ># Note: Some systems use & as the namelist terminator (as shown here).
(PID.TID 0000.0001) >#       Other systems use a / character.
(PID.TID 0000.0001) 
(PID.TID 0000.0001) // =======================================================
(PID.TID 0000.0001) // Computational Grid Specification ( see files "SIZE.h" )
(PID.TID 0000.0001) //                                  ( and "eedata"       )
(PID.TID 0000.0001) // =======================================================
(PID.TID 0000.0001)      nPx =    1 ; /* No. processes in X */
(PID.TID 0000.0001)      nPy =    1 ; /* No. processes in Y */
(PID.TID 0000.0001)      nSx =    1 ; /* No. tiles in X per process */
(PID.TID 0000.0001)      nSy =    1 ; /* No. tiles in Y per process */
(PID.TID 0000.0001)      sNx =  248 ; /* Tile size in X */
(PID.TID 0000.0001)      sNy =  248 ; /* Tile size in Y */
(PID.TID 0000.0001)      OLx =    2 ; /* Tile overlap distance in X */
(PID.TID 0000.0001)      OLy =    2 ; /* Tile overlap distance in Y */
(PID.TID 0000.0001)      nTx =    1 ; /* No. threads in X per process */
(PID.TID 0000.0001)      nTy =    1 ; /* No. threads in Y per process */
(PID.TID 0000.0001)       Nr =    1 ; /* No. levels in the vertical   */
(PID.TID 0000.0001)       Nx =  248 ; /* Total domain size in X ( = nPx*nSx*sNx ) */
(PID.TID 0000.0001)       Ny =  248 ; /* Total domain size in Y ( = nPy*nSy*sNy ) */
(PID.TID 0000.0001)   nTiles =    1 ; /* Total no. tiles per process ( = nSx*nSy ) */
(PID.TID 0000.0001)   nProcs =    1 ; /* Total no. processes ( = nPx*nPy ) */
(PID.TID 0000.0001) nThreads =    1 ; /* Total no. threads per process ( = nTx*nTy ) */
(PID.TID 0000.0001) usingMPI =    F ; /* Flag used to control whether MPI is in use */
(PID.TID 0000.0001)                   /*  note: To execute a program with MPI calls */
(PID.TID 0000.0001)                   /*  it must be launched appropriately e.g     */
(PID.TID 0000.0001)                   /*  "mpirun -np 64 ......"                    */
(PID.TID 0000.0001) useCoupler=   F ; /* Flag used to control communications with   */
(PID.TID 0000.0001)                   /*  other model components, through a coupler */
(PID.TID 0000.0001) useNest2W_parent =    F ;/* Control 2-W Nesting comm */
(PID.TID 0000.0001) useNest2W_child  =    F ;/* Control 2-W Nesting comm */
(PID.TID 0000.0001) debugMode =    F ; /* print debug msg. (sequence of S/R calls)  */
(PID.TID 0000.0001) printMapIncludesZeros=    F ; /* print zeros in Std.Output maps */
(PID.TID 0000.0001) maxLengthPrt1D=   65 /* maxLength of 1D array printed to StdOut */
(PID.TID 0000.0001) 
(PID.TID 0000.0001) // ======================================================
(PID.TID 0000.0001) // Mapping of tiles to threads
(PID.TID 0000.0001) // ======================================================
(PID.TID 0000.0001) // -o- Thread   1, tiles (   1:   1,   1:   1)
(PID.TID 0000.0001) 
(PID.TID 0000.0001) // ======================================================
(PID.TID 0000.0001) // Tile <-> Tile connectvity table
(PID.TID 0000.0001) // ======================================================
(PID.TID 0000.0001) // Tile number: 000001 (process no. = 000000)
(PID.TID 0000.0001) //        WEST: Tile = 000001, Process = 000000, Comm = put
(PID.TID 0000.0001) //                bi = 000001, bj = 000001
(PID.TID 0000.0001) //        EAST: Tile = 000001, Process = 000000, Comm = put
(PID.TID 0000.0001) //                bi = 000001, bj = 000001
(PID.TID 0000.0001) //       SOUTH: Tile = 000001, Process = 000000, Comm = put
(PID.TID 0000.0001) //                bi = 000001, bj = 000001
(PID.TID 0000.0001) //       NORTH: Tile = 000001, Process = 000000, Comm = put
(PID.TID 0000.0001) //                bi = 000001, bj = 000001
(PID.TID 0000.0001) 
(PID.TID 0000.0001)  INI_PARMS: opening model parameter file "data"
(PID.TID 0000.0001)  OPEN_COPY_DATA_FILE: opening file data
(PID.TID 0000.0001) // =======================================================
(PID.TID 0000.0001) // Parameter file "data"
(PID.TID 0000.0001) // =======================================================
(PID.TID 0000.0001) ># Model parameters
(PID.TID 0000.0001) ># Continuous equation parameters
(PID.TID 0000.0001) > &PARM01
(PID.TID 0000.0001) > viscAh=4.E2,
(PID.TID 0000.0001) > f0=0.7E-4,
(PID.TID 0000.0001) > beta=2.E-11,
(PID.TID 0000.0001) > rhoConst=1027.,
(PID.TID 0000.0001) > gBaro=9.81,
(PID.TID 0000.0001) > rigidLid=.FALSE.,
(PID.TID 0000.0001) > implicitFreeSurface=.TRUE.,
(PID.TID 0000.0001) ># momAdvection=.FALSE.,
(PID.TID 0000.0001) > tempStepping=.FALSE.,
(PID.TID 0000.0001) > saltStepping=.FALSE.,
(PID.TID 0000.0001) > useSingleCpuIO=.TRUE.,
(PID.TID 0000.0001) > hFacMin=0.1,
(PID.TID 0000.0001) > &
(PID.TID 0000.0001) >
(PID.TID 0000.0001) ># Elliptic solver parameters
(PID.TID 0000.0001) > &PARM02
(PID.TID 0000.0001) > cg2dTargetResidual=1.E-7,
(PID.TID 0000.0001) > cg2dMaxIters=1000,
(PID.TID 0000.0001) > &
(PID.TID 0000.0001) >
(PID.TID 0000.0001) ># Time stepping parameters
(PID.TID 0000.0001) > &PARM03
(PID.TID 0000.0001) > nIter0=0,
(PID.TID 0000.0001) > nTimeSteps=480,
(PID.TID 0000.0001) > deltaT=5400.0,
(PID.TID 0000.0001) > pChkptFreq=31104000.0,
(PID.TID 0000.0001) > chkptFreq=25920000.0,
(PID.TID 0000.0001) > dumpFreq=86400.0,
(PID.TID 0000.0001) > monitorFreq=86400.,
(PID.TID 0000.0001) > monitorSelect=2,
(PID.TID 0000.0001) >#-for longer run (3.0 yr):
(PID.TID 0000.0001) ># nTimeSteps=77760,
(PID.TID 0000.0001) ># monitorFreq=864000.,
(PID.TID 0000.0001) > &
(PID.TID 0000.0001) >
(PID.TID 0000.0001) ># Gridding parameters
(PID.TID 0000.0001) > &PARM04
(PID.TID 0000.0001) > usingCartesianGrid=.TRUE.,
(PID.TID 0000.0001) > delX=248*5.E3,
(PID.TID 0000.0001) > delY=248*5.E3,
(PID.TID 0000.0001) > xgOrigin=-5.E3,
(PID.TID 0000.0001) > ygOrigin=-5.E3,
(PID.TID 0000.0001) > delR=5000.,
(PID.TID 0000.0001) > &
(PID.TID 0000.0001) >
(PID.TID 0000.0001) ># Input datasets
(PID.TID 0000.0001) > &PARM05
(PID.TID 0000.0001) > bathyFile='bathy.bin'
(PID.TID 0000.0001) > zonalWindFile='wind.bin',
(PID.TID 0000.0001) >#zonalWindFile='windx_siny.bin',
(PID.TID 0000.0001) > meridWindFile=,
(PID.TID 0000.0001) > &
(PID.TID 0000.0001) 
(PID.TID 0000.0001)  INI_PARMS ; starts to read PARM01
(PID.TID 0000.0001)  INI_PARMS ; read PARM01 : OK
(PID.TID 0000.0001)  INI_PARMS ; starts to read PARM02
(PID.TID 0000.0001)  INI_PARMS ; read PARM02 : OK
(PID.TID 0000.0001)  INI_PARMS ; starts to read PARM03
(PID.TID 0000.0001)  INI_PARMS ; read PARM03 : OK
(PID.TID 0000.0001)  INI_PARMS ; starts to read PARM04
(PID.TID 0000.0001)  INI_PARMS ; read PARM04 : OK
(PID.TID 0000.0001)  INI_PARMS ; starts to read PARM05
(PID.TID 0000.0001)  INI_PARMS ; read PARM05 : OK
(PID.TID 0000.0001)  INI_PARMS: finished reading file "data"
(PID.TID 0000.0001)  PACKAGES_BOOT: opening data.pkg
(PID.TID 0000.0001)  OPEN_COPY_DATA_FILE: opening file data.pkg
(PID.TID 0000.0001) // =======================================================
(PID.TID 0000.0001) // Parameter file "data.pkg"
(PID.TID 0000.0001) // =======================================================
(PID.TID 0000.0001) ># Packages
(PID.TID 0000.0001) > &PACKAGES
(PID.TID 0000.0001) > &
(PID.TID 0000.0001) 
(PID.TID 0000.0001)  PACKAGES_BOOT: finished reading data.pkg
(PID.TID 0000.0001)  PACKAGES_BOOT: On/Off package Summary
 --------  pkgs with a standard "usePKG" On/Off switch in "data.pkg":  --------
 -------- pkgs without standard "usePKG" On/Off switch in "data.pkg":  --------
 pkg/generic_advdiff      compiled but not used ( useGAD                   = F )
 pkg/mom_common           compiled   and   used ( momStepping              = T )
 pkg/mom_vecinv           compiled but not used ( +vectorInvariantMomentum = F )
 pkg/mom_fluxform         compiled   and   used ( & not vectorInvariantMom = T )
 pkg/monitor              compiled   and   used ( monitorFreq > 0.         = T )
 pkg/debug                compiled but not used ( debugMode                = F )
 pkg/rw                   compiled   and   used
 pkg/mdsio                compiled   and   used
(PID.TID 0000.0001)  PACKAGES_BOOT: End of package Summary
(PID.TID 0000.0001) 
(PID.TID 0000.0001) SET_PARMS: done
(PID.TID 0000.0001) Enter INI_VERTICAL_GRID: setInterFDr=    T ; setCenterDr=    F
(PID.TID 0000.0001) %MON XC_max                       =   1.2325000000000E+06
(PID.TID 0000.0001) %MON XC_min                       =  -2.5000000000000E+03
(PID.TID 0000.0001) %MON XC_mean                      =   6.1500000000000E+05
(PID.TID 0000.0001) %MON XC_sd                        =   3.5795425685414E+05
(PID.TID 0000.0001) %MON XG_max                       =   1.2300000000000E+06
(PID.TID 0000.0001) %MON XG_min                       =  -5.0000000000000E+03
(PID.TID 0000.0001) %MON XG_mean                      =   6.1250000000000E+05
(PID.TID 0000.0001) %MON XG_sd                        =   3.5795425685414E+05
(PID.TID 0000.0001) %MON DXC_max                      =   5.0000000000000E+03
(PID.TID 0000.0001) %MON DXC_min                      =   5.0000000000000E+03
(PID.TID 0000.0001) %MON DXC_mean                     =   5.0000000000000E+03
(PID.TID 0000.0001) %MON DXC_sd                       =   9.0949470177293E-13
(PID.TID 0000.0001) %MON DXF_max                      =   5.0000000000000E+03
(PID.TID 0000.0001) %MON DXF_min                      =   5.0000000000000E+03
(PID.TID 0000.0001) %MON DXF_mean                     =   5.0000000000000E+03
(PID.TID 0000.0001) %MON DXF_sd                       =   9.0949470177293E-13
(PID.TID 0000.0001) %MON DXG_max                      =   5.0000000000000E+03
(PID.TID 0000.0001) %MON DXG_min                      =   5.0000000000000E+03
(PID.TID 0000.0001) %MON DXG_mean                     =   5.0000000000000E+03
(PID.TID 0000.0001) %MON DXG_sd                       =   9.0949470177293E-13
(PID.TID 0000.0001) %MON DXV_max                      =   5.0000000000000E+03
(PID.TID 0000.0001) %MON DXV_min                      =   5.0000000000000E+03
(PID.TID 0000.0001) %MON DXV_mean                     =   5.0000000000000E+03
(PID.TID 0000.0001) %MON DXV_sd                       =   9.0949470177293E-13
(PID.TID 0000.0001) %MON YC_max                       =   1.2325000000000E+06
(PID.TID 0000.0001) %MON YC_min                       =  -2.5000000000000E+03
(PID.TID 0000.0001) %MON YC_mean                      =   6.1500000000000E+05
(PID.TID 0000.0001) %MON YC_sd                        =   3.5795425685414E+05
(PID.TID 0000.0001) %MON YG_max                       =   1.2300000000000E+06
(PID.TID 0000.0001) %MON YG_min                       =  -5.0000000000000E+03
(PID.TID 0000.0001) %MON YG_mean                      =   6.1250000000000E+05
(PID.TID 0000.0001) %MON YG_sd                        =   3.5795425685414E+05
(PID.TID 0000.0001) %MON DYC_max                      =   5.0000000000000E+03
(PID.TID 0000.0001) %MON DYC_min                      =   5.0000000000000E+03
(PID.TID 0000.0001) %MON DYC_mean                     =   5.0000000000000E+03
(PID.TID 0000.0001) %MON DYC_sd                       =   9.0949470177293E-13
(PID.TID 0000.0001) %MON DYF_max                      =   5.0000000000000E+03
(PID.TID 0000.0001) %MON DYF_min                      =   5.0000000000000E+03
(PID.TID 0000.0001) %MON DYF_mean                     =   5.0000000000000E+03
(PID.TID 0000.0001) %MON DYF_sd                       =   9.0949470177293E-13
(PID.TID 0000.0001) %MON DYG_max                      =   5.0000000000000E+03
(PID.TID 0000.0001) %MON DYG_min                      =   5.0000000000000E+03
(PID.TID 0000.0001) %MON DYG_mean                     =   5.0000000000000E+03
(PID.TID 0000.0001) %MON DYG_sd                       =   9.0949470177293E-13
(PID.TID 0000.0001) %MON DYU_max                      =   5.0000000000000E+03
(PID.TID 0000.0001) %MON DYU_min                      =   5.0000000000000E+03
(PID.TID 0000.0001) %MON DYU_mean                     =   5.0000000000000E+03
(PID.TID 0000.0001) %MON DYU_sd                       =   9.0949470177293E-13
(PID.TID 0000.0001) %MON RA_max                       =   2.5000000000000E+07
(PID.TID 0000.0001) %MON RA_min                       =   2.5000000000000E+07
(PID.TID 0000.0001) %MON RA_mean                      =   2.5000000000000E+07
(PID.TID 0000.0001) %MON RA_sd                        =   3.7252902984619E-09
(PID.TID 0000.0001) %MON RAW_max                      =   2.5000000000000E+07
(PID.TID 0000.0001) %MON RAW_min                      =   2.5000000000000E+07
(PID.TID 0000.0001) %MON RAW_mean                     =   2.5000000000000E+07
(PID.TID 0000.0001) %MON RAW_sd                       =   3.7252902984619E-09
(PID.TID 0000.0001) %MON RAS_max                      =   2.5000000000000E+07
(PID.TID 0000.0001) %MON RAS_min                      =   2.5000000000000E+07
(PID.TID 0000.0001) %MON RAS_mean                     =   2.5000000000000E+07
(PID.TID 0000.0001) %MON RAS_sd                       =   3.7252902984619E-09
(PID.TID 0000.0001) %MON RAZ_max                      =   2.5000000000000E+07
(PID.TID 0000.0001) %MON RAZ_min                      =   2.5000000000000E+07
(PID.TID 0000.0001) %MON RAZ_mean                     =   2.5000000000000E+07
(PID.TID 0000.0001) %MON RAZ_sd                       =   3.7252902984619E-09
(PID.TID 0000.0001) %MON AngleCS_max                  =   1.0000000000000E+00
(PID.TID 0000.0001) %MON AngleCS_min                  =   1.0000000000000E+00
(PID.TID 0000.0001) %MON AngleCS_mean                 =   1.0000000000000E+00
(PID.TID 0000.0001) %MON AngleCS_sd                   =   0.0000000000000E+00
(PID.TID 0000.0001) %MON AngleSN_max                  =   0.0000000000000E+00
(PID.TID 0000.0001) %MON AngleSN_min                  =   0.0000000000000E+00
(PID.TID 0000.0001) %MON AngleSN_mean                 =   0.0000000000000E+00
(PID.TID 0000.0001) %MON AngleSN_sd                   =   0.0000000000000E+00
(PID.TID 0000.0001)  MDS_READ_FIELD: opening global file: bathy.bin
(PID.TID 0000.0001) // =======================================================
(PID.TID 0000.0001) // Field Model R_low (ini_masks_etc)
(PID.TID 0000.0001) // CMIN =         -4.999819335937500E+03
(PID.TID 0000.0001) // CMAX =         -4.500020019531250E+03
(PID.TID 0000.0001) // CINT =          1.851108579282407E+01
(PID.TID 0000.0001) // SYMBOLS (CMIN->CMAX): -abcdefghijklmnopqrstuvwxyz+
(PID.TID 0000.0001) //                  0.0: .
(PID.TID 0000.0001) // RANGE I (Lo:Hi:Step):(    -1:   250:     1)
(PID.TID 0000.0001) // RANGE J (Lo:Hi:Step):(   250:    -1:    -1)
(PID.TID 0000.0001) // RANGE K (Lo:Hi:Step):(   1:   1:   1)
(PID.TID 0000.0001) // =======================================================
(PID.TID 0000.0001) K =   1
(PID.TID 0000.0001) //                I=8       I=18      I=28      I=38      I=48      I=58      I=68      I=78      I=88      I=98      I=108     I=118     I=128     I=138     I=148     I=158     I=168     I=178     I=188     I=198     I=208     I=218     I=228     I=238     I=248
(PID.TID 0000.0001) // |--J--|101234567|901234567|901234567|901234567|901234567|901234567|901234567|901234567|901234567|901234567|901234567|901234567|901234567|901234567|901234567|901234567|901234567|901234567|901234567|901234567|901234567|901234567|901234567|901234567|901234567|90
(PID.TID 0000.0001) //    250 -..------------------------------------------------------------------------------------------------------------------aaaaaaaaaaaaaaaaaa------------------------------------------------------------------------------------------------------------------..-
(PID.TID 0000.0001) //    249 ............................................................................................................................................................................................................................................................
(PID.TID 0000.0001) //    248 ............................................................................................................................................................................................................................................................
(PID.TID 0000.0001) //    247 -..------------------------------------------------------------------------------------------------------------------aaaaaaaaaaaaaaaaaa------------------------------------------------------------------------------------------------------------------..-
(PID.TID 0000.0001) //    246 -..-------------------------------------------------aaaaaaaaaaaaaaaaaaaaaaaaaaaaaaaaaaaaaaaaaaaaaaaaaaaaaaaaaaaaaaaaaaaaaaaaaaaaaaaaaaaaaaaaaaaaaaaaaaaaaaaaaaaaaaaaaaaaaaaaaaaaaaaaaaaaaaaaaaaaaaaaaaaa-------------------------------------------------..-
(PID.TID 0000.0001) //    245 -..----------------------------------aaaaaaaaaaaaaaaaaaaaaaaaaaaaaaaaaaaaaaaaaaaaaaaaaaaaaaaaaaaaaaaaaaaaaaaaaaaaaaaaaaaaaaaaaaaaaaaaaaaaaaaaaaaaaaaaaaaaaaaaaaaaaaaaaaaaaaaaaaaaaaaaaaaaaaaaaaaaaaaaaaaaaaaaaaaaaaaaaa----------------------------------..-
(PID.TID 0000.0001) //    244 -..--------------------------aaaaaaaaaaaaaaaaaaaaaaaaaaaaaaaaaaaaaaaaaaaaaaaaaaaaaaaaaaaaaaaaaaaaaaaaaaaaaaaaaabbbbbbbbbbbbbbbbbbbbbbbbbbbbbbaaaaaaaaaaaaaaaaaaaaaaaaaaaaaaaaaaaaaaaaaaaaaaaaaaaaaaaaaaaaaaaaaaaaaaaaaaaaaaaaaa--------------------------..-
(PID.TID 0000.0001) //    243 -..---------------------aaaaaaaaaaaaaaaaaaaaaaaaaaaaaaaaaaaaaaaaaaaaaaaaaaaabbbbbbbbbbbbbbbbbbbbbbbbbbbbbbbbbbbbbbbbbbbbbbbbbbbbbbbbbbbbbbbbbbbbbbbbbbbbbbbbbbbbbbbbbbbbbbbbbbbbaaaaaaaaaaaaaaaaaaaaaaaaaaaaaaaaaaaaaaaaaaaaaaaaaaaa---------------------..-
(PID.TID 0000.0001) //    242 -..-----------------aaaaaaaaaaaaaaaaaaaaaaaaaaaaaaaaaaaaaaaaabbbbbbbbbbbbbbbbbbbbbbbbbbbbbbbbbbbbbbbbbbbbbbbbbbbbbbbbbbbbbbbbbbbbbbbbbbbbbbbbbbbbbbbbbbbbbbbbbbbbbbbbbbbbbbbbbbbbbbbbbbbbbbbbbbaaaaaaaaaaaaaaaaaaaaaaaaaaaaaaaaaaaaaaaaa-----------------..-
(PID.TID 0000.0001) //    241 -..---------------aaaaaaaaaaaaaaaaaaaaaaaaaaaaaaaaaabbbbbbbbbbbbbbbbbbbbbbbbbbbbbbbbbbbbbbbbbbbbbbbbbbbbbbbbbbccccccccccccccccccccccccccccccccbbbbbbbbbbbbbbbbbbbbbbbbbbbbbbbbbbbbbbbbbbbbbbbbbbbbbbbbbbaaaaaaaaaaaaaaaaaaaaaaaaaaaaaaaaaa---------------..-
(PID.TID 0000.0001) //    240 -..-------------aaaaaaaaaaaaaaaaaaaaaaaaaaaaabbbbbbbbbbbbbbbbbbbbbbbbbbbbbbbbbbbbbbbccccccccccccccccccccccccccccccccccccccccccccccccccccccccccccccccccccccccccccccccccccbbbbbbbbbbbbbbbbbbbbbbbbbbbbbbbbbbbbbbbaaaaaaaaaaaaaaaaaaaaaaaaaaaaa-------------..-
(PID.TID 0000.0001) //    239 -..-----------aaaaaaaaaaaaaaaaaaaaaaaaaabbbbbbbbbbbbbbbbbbbbbbbbbbbbbbbbccccccccccccccccccccccccccccccccccccccccccccccccccccccccccccccccccccccccccccccccccccccccccccccccccccccccccccbbbbbbbbbbbbbbbbbbbbbbbbbbbbbbbbaaaaaaaaaaaaaaaaaaaaaaaaaa-----------..-
(PID.TID 0000.0001) //    238 -..----------aaaaaaaaaaaaaaaaaaaaaaabbbbbbbbbbbbbbbbbbbbbbbbbbbcccccccccccccccccccccccccccccccccccccccccccccccddddddddddddddddddddddddddddddddcccccccccccccccccccccccccccccccccccccccccccccccbbbbbbbbbbbbbbbbbbbbbbbbbbbaaaaaaaaaaaaaaaaaaaaaaa----------..-
(PID.TID 0000.0001) //    237 -..---------aaaaaaaaaaaaaaaaaaaaabbbbbbbbbbbbbbbbbbbbbbbbcccccccccccccccccccccccccccccccccddddddddddddddddddddddddddddddddddddddddddddddddddddddddddddddddddddddddcccccccccccccccccccccccccccccccccbbbbbbbbbbbbbbbbbbbbbbbbaaaaaaaaaaaaaaaaaaaaa---------..-
(PID.TID 0000.0001) //    236 -..--------aaaaaaaaaaaaaaaaaaaabbbbbbbbbbbbbbbbbbbbbccccccccccccccccccccccccccddddddddddddddddddddddddddddddddddddddddddddddddddddddddddddddddddddddddddddddddddddddddddddddddccccccccccccccccccccccccccbbbbbbbbbbbbbbbbbbbbbaaaaaaaaaaaaaaaaaaaa--------..-
(PID.TID 0000.0001) //    235 -..--------aaaaaaaaaaaaaaaaabbbbbbbbbbbbbbbbbbbbcccccccccccccccccccccccddddddddddddddddddddddddddddddddddddddddeeeeeeeeeeeeeeeeeeeeeeeeeeeeeeddddddddddddddddddddddddddddddddddddddddcccccccccccccccccccccccbbbbbbbbbbbbbbbbbbbbaaaaaaaaaaaaaaaaa--------..-
(PID.TID 0000.0001) //    234 -..-------aaaaaaaaaaaaaaaaabbbbbbbbbbbbbbbbbccccccccccccccccccccdddddddddddddddddddddddddddddeeeeeeeeeeeeeeeeeeeeeeeeeeeeeeeeeeeeeeeeeeeeeeeeeeeeeeeeeeeeeeeeeedddddddddddddddddddddddddddddccccccccccccccccccccbbbbbbbbbbbbbbbbbaaaaaaaaaaaaaaaaa-------..-
(PID.TID 0000.0001) //    233 -..-------aaaaaaaaaaaaaaabbbbbbbbbbbbbbbbcccccccccccccccccccdddddddddddddddddddddddeeeeeeeeeeeeeeeeeeeeeeeeeeeeeeeeeeeeeeeeeeeeeeeeeeeeeeeeeeeeeeeeeeeeeeeeeeeeeeeeeeeeeedddddddddddddddddddddddcccccccccccccccccccbbbbbbbbbbbbbbbbaaaaaaaaaaaaaaa-------..-
(PID.TID 0000.0001) //    232 -..------aaaaaaaaaaaaaaabbbbbbbbbbbbbbbccccccccccccccccdddddddddddddddddddddeeeeeeeeeeeeeeeeeeeeeeeeeeeeeeeeeeeffffffffffffffffffffffffffffffeeeeeeeeeeeeeeeeeeeeeeeeeeeeeeeeeeedddddddddddddddddddddccccccccccccccccbbbbbbbbbbbbbbbaaaaaaaaaaaaaaa------..-
(PID.TID 0000.0001) //    231 -..------aaaaaaaaaaaaabbbbbbbbbbbbbbccccccccccccccccddddddddddddddddddeeeeeeeeeeeeeeeeeeeeeeeeeeffffffffffffffffffffffffffffffffffffffffffffffffffffffffffffeeeeeeeeeeeeeeeeeeeeeeeeeeddddddddddddddddddccccccccccccccccbbbbbbbbbbbbbbaaaaaaaaaaaaa------..-
(PID.TID 0000.0001) //    230 -..-----aaaaaaaaaaaaabbbbbbbbbbbbbcccccccccccccccddddddddddddddddeeeeeeeeeeeeeeeeeeeeeeffffffffffffffffffffffffffffffffffffffffffffffffffffffffffffffffffffffffffffffeeeeeeeeeeeeeeeeeeeeeeddddddddddddddddcccccccccccccccbbbbbbbbbbbbbaaaaaaaaaaaaa-----..-
(PID.TID 0000.0001) //    229 -..-----aaaaaaaaaaaabbbbbbbbbbbbbcccccccccccccdddddddddddddddeeeeeeeeeeeeeeeeeeefffffffffffffffffffffffffffffffffggggggggggggggggggggggggggfffffffffffffffffffffffffffffffffeeeeeeeeeeeeeeeeeeedddddddddddddddcccccccccccccbbbbbbbbbbbbbaaaaaaaaaaaa-----..-
(PID.TID 0000.0001) //    228 -..-----aaaaaaaaaaabbbbbbbbbbbbcccccccccccccddddddddddddddeeeeeeeeeeeeeeeeffffffffffffffffffffffffggggggggggggggggggggggggggggggggggggggggggggggggggggggggffffffffffffffffffffffffeeeeeeeeeeeeeeeeddddddddddddddcccccccccccccbbbbbbbbbbbbaaaaaaaaaaa-----..-
(PID.TID 0000.0001) //    227 -..-----aaaaaaaaaaabbbbbbbbbbbccccccccccccdddddddddddddeeeeeeeeeeeeeeeffffffffffffffffffffggggggggggggggggggggggggggggggggggggggggggggggggggggggggggggggggggggggggffffffffffffffffffffeeeeeeeeeeeeeeedddddddddddddccccccccccccbbbbbbbbbbbaaaaaaaaaaa-----..-
(PID.TID 0000.0001) //    226 -..----aaaaaaaaaaabbbbbbbbbbbcccccccccccddddddddddddeeeeeeeeeeeeeefffffffffffffffffggggggggggggggggggggggggggggggghhhhhhhhhhhhhhhhhhhhhhhhgggggggggggggggggggggggggggggggfffffffffffffffffeeeeeeeeeeeeeeddddddddddddcccccccccccbbbbbbbbbbbaaaaaaaaaaa----..-
(PID.TID 0000.0001) //    225 -..----aaaaaaaaaabbbbbbbbbbcccccccccccddddddddddddeeeeeeeeeeeeefffffffffffffffgggggggggggggggggggggghhhhhhhhhhhhhhhhhhhhhhhhhhhhhhhhhhhhhhhhhhhhhhhhhhhhggggggggggggggggggggggfffffffffffffffeeeeeeeeeeeeeddddddddddddcccccccccccbbbbbbbbbbaaaaaaaaaa----..-
(PID.TID 0000.0001) //    224 -..----aaaaaaaaaabbbbbbbbbcccccccccccdddddddddddeeeeeeeeeeeeffffffffffffffgggggggggggggggggghhhhhhhhhhhhhhhhhhhhhhhhhhhhhhhhhhhhhhhhhhhhhhhhhhhhhhhhhhhhhhhhhhhhggggggggggggggggggffffffffffffffeeeeeeeeeeeedddddddddddcccccccccccbbbbbbbbbaaaaaaaaaa----..-
(PID.TID 0000.0001) //    223 -..----aaaaaaaaabbbbbbbbbccccccccccdddddddddddeeeeeeeeeeefffffffffffffgggggggggggggggghhhhhhhhhhhhhhhhhhhhhhhhhhhhhhiiiiiiiiiiiiiiiiiiiihhhhhhhhhhhhhhhhhhhhhhhhhhhhhhggggggggggggggggfffffffffffffeeeeeeeeeeedddddddddddccccccccccbbbbbbbbbaaaaaaaaa----..-
(PID.TID 0000.0001) //    222 -..----aaaaaaaabbbbbbbbbbcccccccccddddddddddeeeeeeeeeeeffffffffffffgggggggggggggghhhhhhhhhhhhhhhhhhhhhhiiiiiiiiiiiiiiiiiiiiiiiiiiiiiiiiiiiiiiiiiiiiiihhhhhhhhhhhhhhhhhhhhhhggggggggggggggffffffffffffeeeeeeeeeeeddddddddddcccccccccbbbbbbbbbbaaaaaaaa----..-
(PID.TID 0000.0001) //    221 -..---aaaaaaaaabbbbbbbbbcccccccccdddddddddeeeeeeeeeeefffffffffffggggggggggggghhhhhhhhhhhhhhhhhhiiiiiiiiiiiiiiiiiiiiiiiiiiiiiiiiiiiiiiiiiiiiiiiiiiiiiiiiiiiiiihhhhhhhhhhhhhhhhhhgggggggggggggfffffffffffeeeeeeeeeeedddddddddcccccccccbbbbbbbbbaaaaaaaaa---..-
(PID.TID 0000.0001) //    220 -..---aaaaaaaaabbbbbbbbcccccccccdddddddddeeeeeeeeeeffffffffffggggggggggggghhhhhhhhhhhhhhhiiiiiiiiiiiiiiiiiiiiiiiiiiiiiiijjjjjjjjjjjjiiiiiiiiiiiiiiiiiiiiiiiiiiiiiiihhhhhhhhhhhhhhhgggggggggggggffffffffffeeeeeeeeeedddddddddcccccccccbbbbbbbbaaaaaaaaa---..-
(PID.TID 0000.0001) //    219 -..---aaaaaaaabbbbbbbbcccccccccddddddddeeeeeeeeeeffffffffffggggggggggghhhhhhhhhhhhhhiiiiiiiiiiiiiiiiiiiiijjjjjjjjjjjjjjjjjjjjjjjjjjjjjjjjjjjjjjjjjjiiiiiiiiiiiiiiiiiiiiihhhhhhhhhhhhhhgggggggggggffffffffffeeeeeeeeeeddddddddcccccccccbbbbbbbbaaaaaaaa---..-
(PID.TID 0000.0001) //    218 -..---aaaaaaaabbbbbbbbccccccccddddddddeeeeeeeeeffffffffffggggggggggghhhhhhhhhhhhiiiiiiiiiiiiiiiiijjjjjjjjjjjjjjjjjjjjjjjjjjjjjjjjjjjjjjjjjjjjjjjjjjjjjjjjjjiiiiiiiiiiiiiiiiihhhhhhhhhhhhgggggggggggffffffffffeeeeeeeeeddddddddccccccccbbbbbbbbaaaaaaaa---..-
(PID.TID 0000.0001) //    217 -..---aaaaaaabbbbbbbbccccccccddddddddeeeeeeeeefffffffffgggggggggghhhhhhhhhhhhiiiiiiiiiiiiiiijjjjjjjjjjjjjjjjjjjjjjjjjjjjjjjjjjjjjjjjjjjjjjjjjjjjjjjjjjjjjjjjjjjjiiiiiiiiiiiiiiihhhhhhhhhhhhggggggggggfffffffffeeeeeeeeeddddddddccccccccbbbbbbbbaaaaaaa---..-
(PID.TID 0000.0001) //    216 -..---aaaaaaabbbbbbbccccccccddddddddeeeeeeeefffffffffgggggggggghhhhhhhhhhhiiiiiiiiiiiiijjjjjjjjjjjjjjjjjjjjkkkkkkkkkkkkkkkkkkkkkkkkkkkkkkkkkkkkkkjjjjjjjjjjjjjjjjjjjjiiiiiiiiiiiiihhhhhhhhhhhggggggggggfffffffffeeeeeeeeddddddddccccccccbbbbbbbaaaaaaa---..-
(PID.TID 0000.0001) //    215 -..---aaaaaaabbbbbbbcccccccddddddddeeeeeeeeffffffffgggggggggghhhhhhhhhhiiiiiiiiiiiijjjjjjjjjjjjjjjjjkkkkkkkkkkkkkkkkkkkkkkkkkkkkkkkkkkkkkkkkkkkkkkkkkkkkjjjjjjjjjjjjjjjjjiiiiiiiiiiiihhhhhhhhhhggggggggggffffffffeeeeeeeeddddddddcccccccbbbbbbbaaaaaaa---..-
(PID.TID 0000.0001) //    214 -..---aaaaaabbbbbbbccccccccdddddddeeeeeeeeffffffffggggggggghhhhhhhhhiiiiiiiiiiiijjjjjjjjjjjjjjkkkkkkkkkkkkkkkkkkkkkkkkkkkkkkkkkkkkkkkkkkkkkkkkkkkkkkkkkkkkkkkkjjjjjjjjjjjjjjiiiiiiiiiiiihhhhhhhhhgggggggggffffffffeeeeeeeedddddddccccccccbbbbbbbaaaaaa---..-
(PID.TID 0000.0001) //    213 -..--aaaaaaabbbbbbbcccccccdddddddeeeeeeeefffffffggggggggghhhhhhhhhiiiiiiiiiiijjjjjjjjjjjjjkkkkkkkkkkkkkkkkkkkkllllllllllllllllllllllllllllllllkkkkkkkkkkkkkkkkkkkkjjjjjjjjjjjjjiiiiiiiiiiihhhhhhhhhgggggggggfffffffeeeeeeeedddddddcccccccbbbbbbbaaaaaaa--..-
(PID.TID 0000.0001) //    212 -..--aaaaaaabbbbbbbccccccdddddddeeeeeeeffffffffgggggggghhhhhhhhhiiiiiiiiiijjjjjjjjjjjjkkkkkkkkkkkkkkkkllllllllllllllllllllllllllllllllllllllllllllllllkkkkkkkkkkkkkkkkjjjjjjjjjjjjiiiiiiiiiihhhhhhhhhggggggggffffffffeeeeeeedddddddccccccbbbbbbbaaaaaaa--..-
(PID.TID 0000.0001) //    211 -..--aaaaaaabbbbbbcccccccddddddeeeeeeeffffffffgggggggghhhhhhhhiiiiiiiiijjjjjjjjjjjkkkkkkkkkkkkkkkllllllllllllllllllllllllllllllllllllllllllllllllllllllllllkkkkkkkkkkkkkkkjjjjjjjjjjjiiiiiiiiihhhhhhhhggggggggffffffffeeeeeeeddddddcccccccbbbbbbaaaaaaa--..-
(PID.TID 0000.0001) //    210 -..--aaaaaabbbbbbbccccccdddddddeeeeeeefffffffggggggghhhhhhhhiiiiiiiiijjjjjjjjjjkkkkkkkkkkkkkllllllllllllllllllllllmmmmmmmmmmmmmmmmmmmmmmmmllllllllllllllllllllllkkkkkkkkkkkkkjjjjjjjjjjiiiiiiiiihhhhhhhhgggggggfffffffeeeeeeedddddddccccccbbbbbbbaaaaaa--..-
(PID.TID 0000.0001) //    209 -..--aaaaaabbbbbbcccccccddddddeeeeeeefffffffggggggghhhhhhhhiiiiiiiijjjjjjjjjjkkkkkkkkkkklllllllllllllllllmmmmmmmmmmmmmmmmmmmmmmmmmmmmmmmmmmmmmmmmmmlllllllllllllllllkkkkkkkkkkkjjjjjjjjjjiiiiiiiihhhhhhhhgggggggfffffffeeeeeeeddddddcccccccbbbbbbaaaaaa--..-
(PID.TID 0000.0001) //    208 -..--aaaaaabbbbbbccccccddddddeeeeeeefffffffggggggghhhhhhhiiiiiiiijjjjjjjjjkkkkkkkkkkkllllllllllllllmmmmmmmmmmmmmmmmmmmmmmmmmmmmmmmmmmmmmmmmmmmmmmmmmmmmmmllllllllllllllkkkkkkkkkkkjjjjjjjjjiiiiiiiihhhhhhhgggggggfffffffeeeeeeeddddddccccccbbbbbbaaaaaa--..-
(PID.TID 0000.0001) //    207 -..--aaaaaabbbbbbccccccddddddeeeeeefffffffgggggghhhhhhhhiiiiiiijjjjjjjjjkkkkkkkkkklllllllllllllmmmmmmmmmmmmmmmmmmmmmmmmmnnnnnnnnnnnnmmmmmmmmmmmmmmmmmmmmmmmmmlllllllllllllkkkkkkkkkkjjjjjjjjjiiiiiiihhhhhhhhggggggfffffffeeeeeeddddddccccccbbbbbbaaaaaa--..-
(PID.TID 0000.0001) //    206 -..--aaaaaabbbbbccccccddddddeeeeeefffffffgggggghhhhhhhiiiiiiiijjjjjjjjkkkkkkkkkllllllllllllmmmmmmmmmmmmmmmmmnnnnnnnnnnnnnnnnnnnnnnnnnnnnnnnnnnnnmmmmmmmmmmmmmmmmmllllllllllllkkkkkkkkkjjjjjjjjiiiiiiiihhhhhhhggggggfffffffeeeeeeddddddccccccbbbbbaaaaaa--..-
(PID.TID 0000.0001) //    205 -..--aaaaabbbbbbccccccddddddeeeeeeffffffgggggghhhhhhhiiiiiiijjjjjjjjkkkkkkkkklllllllllllmmmmmmmmmmmmmmnnnnnnnnnnnnnnnnnnnnnnnnnnnnnnnnnnnnnnnnnnnnnnnnmmmmmmmmmmmmmmlllllllllllkkkkkkkkkjjjjjjjjiiiiiiihhhhhhhggggggffffffeeeeeeddddddccccccbbbbbbaaaaa--..-
(PID.TID 0000.0001) //    204 -..--aaaaabbbbbbcccccddddddeeeeeeffffffgggggghhhhhhhiiiiiiijjjjjjjkkkkkkkkkllllllllllmmmmmmmmmmmmmnnnnnnnnnnnnnnnnnnnnnnnnnnnnnnnnnnnnnnnnnnnnnnnnnnnnnnnnmmmmmmmmmmmmmllllllllllkkkkkkkkkjjjjjjjiiiiiiihhhhhhhggggggffffffeeeeeeddddddcccccbbbbbbaaaaa--..-
(PID.TID 0000.0001) //    203 -..--aaaaabbbbbbcccccddddddeeeeeffffffgggggghhhhhhhiiiiiijjjjjjjjkkkkkkkklllllllllmmmmmmmmmmmmnnnnnnnnnnnnnnnnnnnoooooooooooooooooooooooooonnnnnnnnnnnnnnnnnnnmmmmmmmmmmmmlllllllllkkkkkkkkjjjjjjjjiiiiiihhhhhhhggggggffffffeeeeeddddddcccccbbbbbbaaaaa--..-
(PID.TID 0000.0001) //    202 -..--aaaaabbbbbccccccdddddeeeeeefffffgggggghhhhhhhiiiiiijjjjjjjkkkkkkkklllllllllmmmmmmmmmmnnnnnnnnnnnnnnnnoooooooooooooooooooooooooooooooooooooooonnnnnnnnnnnnnnnnmmmmmmmmmmlllllllllkkkkkkkkjjjjjjjiiiiiihhhhhhhggggggfffffeeeeeedddddccccccbbbbbaaaaa--..-
(PID.TID 0000.0001) //    201 -..--aaaaabbbbbcccccddddddeeeeeffffffgggggghhhhhhiiiiiijjjjjjjkkkkkkklllllllllmmmmmmmmmmnnnnnnnnnnnnnoooooooooooooooooooooooooooooooooooooooooooooooooonnnnnnnnnnnnnmmmmmmmmmmlllllllllkkkkkkkjjjjjjjiiiiiihhhhhhggggggffffffeeeeeddddddcccccbbbbbaaaaa--..-
(PID.TID 0000.0001) //    200 -..--aaaaabbbbbcccccdddddeeeeeefffffgggggghhhhhhiiiiiijjjjjjkkkkkkkkllllllllmmmmmmmmmnnnnnnnnnnnnooooooooooooooooooooooppppppppppppppoooooooooooooooooooooonnnnnnnnnnnnmmmmmmmmmllllllllkkkkkkkkjjjjjjiiiiiihhhhhhggggggfffffeeeeeedddddcccccbbbbbaaaaa--..-
(PID.TID 0000.0001) //    199 -..--aaaaabbbbbcccccdddddeeeeefffffgggggghhhhhhiiiiiijjjjjjkkkkkkkllllllllmmmmmmmmmnnnnnnnnnnoooooooooooooooooppppppppppppppppppppppppppppppppooooooooooooooooonnnnnnnnnnmmmmmmmmmllllllllkkkkkkkjjjjjjiiiiiihhhhhhggggggfffffeeeeedddddcccccbbbbbaaaaa--..-
(PID.TID 0000.0001) //    198 -..-aaaaabbbbbcccccdddddeeeeeefffffggggghhhhhhiiiiiijjjjjjkkkkkkklllllllmmmmmmmmnnnnnnnnnnooooooooooooooppppppppppppppppppppppppppppppppppppppppppppoooooooooooooonnnnnnnnnnmmmmmmmmlllllllkkkkkkkjjjjjjiiiiiihhhhhhgggggfffffeeeeeedddddcccccbbbbbaaaaa-..-
(PID.TID 0000.0001) //    197 -..-aaaaabbbbbcccccdddddeeeeefffffgggggghhhhhiiiiiijjjjjjkkkkkkllllllllmmmmmmmnnnnnnnnnnooooooooooooppppppppppppppppppppppppppppppppppppppppppppppppppppoooooooooooonnnnnnnnnnmmmmmmmllllllllkkkkkkjjjjjjiiiiiihhhhhggggggfffffeeeeedddddcccccbbbbbaaaaa-..-
(PID.TID 0000.0001) //    196 -..-aaaaabbbbbcccccdddddeeeeefffffggggghhhhhiiiiiijjjjjjkkkkkklllllllmmmmmmmmnnnnnnnnooooooooooopppppppppppppppppppqqqqqqqqqqqqqqqqqqqqqqpppppppppppppppppppooooooooooonnnnnnnnmmmmmmmmlllllllkkkkkkjjjjjjiiiiiihhhhhgggggfffffeeeeedddddcccccbbbbbaaaaa-..-
(PID.TID 0000.0001) //    195 -..-aaaaabbbbbccccdddddeeeeefffffggggghhhhhhiiiiijjjjjjkkkkkklllllllmmmmmmmnnnnnnnnoooooooooopppppppppppppppqqqqqqqqqqqqqqqqqqqqqqqqqqqqqqqqqqqqpppppppppppppppoooooooooonnnnnnnnmmmmmmmlllllllkkkkkkjjjjjjiiiiihhhhhhgggggfffffeeeeedddddccccbbbbbaaaaa-..-
(PID.TID 0000.0001) //    194 -..-aaaaabbbbbccccdddddeeeeefffffggggghhhhhiiiiijjjjjjkkkkkkllllllmmmmmmmnnnnnnnnoooooooooopppppppppppppqqqqqqqqqqqqqqqqqqqqqqqqqqqqqqqqqqqqqqqqqqqqpppppppppppppoooooooooonnnnnnnnmmmmmmmllllllkkkkkkjjjjjjiiiiihhhhhgggggfffffeeeeedddddccccbbbbbaaaaa-..-
(PID.TID 0000.0001) //    193 -..-aaaaabbbbcccccdddddeeeefffffggggghhhhhiiiiijjjjjjkkkkkkllllllmmmmmmmnnnnnnnoooooooooppppppppppppqqqqqqqqqqqqqqqqqqqqqqqqqqqqqqqqqqqqqqqqqqqqqqqqqqqqppppppppppppooooooooonnnnnnnmmmmmmmllllllkkkkkkjjjjjjiiiiihhhhhgggggfffffeeeedddddcccccbbbbaaaaa-..-
(PID.TID 0000.0001) //    192 -..-aaaaabbbbcccccddddeeeeefffffggggghhhhhiiiiijjjjjkkkkkkllllllmmmmmmnnnnnnnnoooooooopppppppppppqqqqqqqqqqqqqqqqqrrrrrrrrrrrrrrrrrrrrrrrrqqqqqqqqqqqqqqqqqpppppppppppoooooooonnnnnnnnmmmmmmllllllkkkkkkjjjjjiiiiihhhhhgggggfffffeeeeeddddcccccbbbbaaaaa-..-
(PID.TID 0000.0001) //    191 -..-aaaaabbbbcccccddddeeeeeffffggggghhhhhiiiiijjjjjkkkkkkllllllmmmmmmnnnnnnnooooooooppppppppppqqqqqqqqqqqqqqrrrrrrrrrrrrrrrrrrrrrrrrrrrrrrrrrrrrqqqqqqqqqqqqqqppppppppppoooooooonnnnnnnmmmmmmllllllkkkkkkjjjjjiiiiihhhhhgggggffffeeeeeddddcccccbbbbaaaaa-..-
(PID.TID 0000.0001) //    190 -..-aaaaabbbbccccdddddeeeefffffggggghhhhiiiiijjjjjkkkkkkllllllmmmmmmnnnnnnnooooooopppppppppqqqqqqqqqqqqqrrrrrrrrrrrrrrrrrrrrrrrrrrrrrrrrrrrrrrrrrrrrqqqqqqqqqqqqqpppppppppooooooonnnnnnnmmmmmmllllllkkkkkkjjjjjiiiiihhhhgggggfffffeeeedddddccccbbbbaaaaa-..-
(PID.TID 0000.0001) //    189 -..-aaaabbbbbccccddddeeeeeffffggggghhhhhiiiiijjjjjkkkkkllllllmmmmmmnnnnnnooooooooppppppppqqqqqqqqqqqrrrrrrrrrrrrrrrrrrrrrrrrrrrrrrrrrrrrrrrrrrrrrrrrrrrrqqqqqqqqqqqppppppppoooooooonnnnnnmmmmmmllllllkkkkkjjjjjiiiiihhhhhgggggffffeeeeeddddccccbbbbbaaaa-..-
(PID.TID 0000.0001) //    188 -..-aaaabbbbbccccddddeeeeeffffggggghhhhiiiiijjjjjkkkkkllllllmmmmmmnnnnnnoooooooppppppppqqqqqqqqqqrrrrrrrrrrrrrrrrrssssssssssssssssssssssssrrrrrrrrrrrrrrrrrqqqqqqqqqqppppppppooooooonnnnnnmmmmmmllllllkkkkkjjjjjiiiiihhhhgggggffffeeeeeddddccccbbbbbaaaa-..-
(PID.TID 0000.0001) //    187 -..-aaaabbbbcccccddddeeeefffffgggghhhhhiiiijjjjjkkkkkllllllmmmmmmnnnnnnooooooopppppppqqqqqqqqqqrrrrrrrrrrrrrssssssssssssssssssssssssssssssssssssrrrrrrrrrrrrrqqqqqqqqqqpppppppooooooonnnnnnmmmmmmllllllkkkkkjjjjjiiiihhhhhggggfffffeeeeddddcccccbbbbaaaa-..-
(PID.TID 0000.0001) //    186 -..-aaaabbbbccccdddddeeeeffffggggghhhhiiiiijjjjjkkkkklllllmmmmmmnnnnnnooooooppppppppqqqqqqqqrrrrrrrrrrrrssssssssssssssssssssssssssssssssssssssssssssrrrrrrrrrrrrqqqqqqqqppppppppoooooonnnnnnmmmmmmlllllkkkkkjjjjjiiiiihhhhgggggffffeeeedddddccccbbbbaaaa-..-
(PID.TID 0000.0001) //    185 -..-aaaabbbbccccddddeeeeeffffgggghhhhhiiiijjjjjkkkkklllllmmmmmmnnnnnooooooopppppppqqqqqqqqrrrrrrrrrrrssssssssssssssssssssssssssssssssssssssssssssssssssrrrrrrrrrrrqqqqqqqqpppppppooooooonnnnnmmmmmmlllllkkkkkjjjjjiiiihhhhhggggffffeeeeeddddccccbbbbaaaa-..-
(PID.TID 0000.0001) //    184 -..-aaaabbbbccccddddeeeefffffgggghhhhiiiiijjjjkkkkklllllmmmmmmnnnnnoooooooppppppqqqqqqqqrrrrrrrrrrsssssssssssssssssttttttttttttttttttttttsssssssssssssssssrrrrrrrrrrqqqqqqqqppppppooooooonnnnnmmmmmmlllllkkkkkjjjjiiiiihhhhggggfffffeeeeddddccccbbbbaaaa-..-
(PID.TID 0000.0001) //    183 -..-aaaabbbbccccddddeeeeffffggggghhhhiiiijjjjjkkkkklllllmmmmmnnnnnoooooopppppppqqqqqqqqrrrrrrrrrssssssssssssssttttttttttttttttttttttttttttttttssssssssssssssrrrrrrrrrqqqqqqqqpppppppoooooonnnnnmmmmmlllllkkkkkjjjjjiiiihhhhgggggffffeeeeddddccccbbbbaaaa-..-
(PID.TID 0000.0001) //    182 -..-aaaabbbbccccddddeeeeffffgggghhhhiiiiijjjjkkkkklllllmmmmmnnnnnoooooopppppppqqqqqqqrrrrrrrrrssssssssssssttttttttttttttttttttttttttttttttttttttttssssssssssssrrrrrrrrrqqqqqqqpppppppoooooonnnnnmmmmmlllllkkkkkjjjjiiiiihhhhggggffffeeeeddddccccbbbbaaaa-..-
(PID.TID 0000.0001) //    181 -..-aaaabbbbccccddddeeeeffffgggghhhhiiiijjjjjkkkklllllmmmmmnnnnnnooooopppppppqqqqqqqrrrrrrrrsssssssssssttttttttttttttttttttttttttttttttttttttttttttttsssssssssssrrrrrrrrqqqqqqqpppppppooooonnnnnnmmmmmlllllkkkkjjjjjiiiihhhhggggffffeeeeddddccccbbbbaaaa-..-
(PID.TID 0000.0001) //    180 -..-aaaabbbbccccdddeeeeffffgggghhhhhiiiijjjjkkkkklllllmmmmnnnnnnoooooppppppqqqqqqqrrrrrrrrssssssssssttttttttttttttttttuuuuuuuuuuuuuuuuttttttttttttttttttssssssssssrrrrrrrrqqqqqqqppppppooooonnnnnnmmmmlllllkkkkkjjjjiiiihhhhhggggffffeeeedddccccbbbbaaaa-..-
(PID.TID 0000.0001) //    179 -..-aaaabbbbcccddddeeeeffffgggghhhhiiiijjjjjkkkklllllmmmmmnnnnnoooooppppppqqqqqqqrrrrrrrssssssssssttttttttttttttuuuuuuuuuuuuuuuuuuuuuuuuuuuuttttttttttttttssssssssssrrrrrrrqqqqqqqppppppooooonnnnnmmmmmlllllkkkkjjjjjiiiihhhhggggffffeeeeddddcccbbbbaaaa-..-
(PID.TID 0000.0001) //    178 -..-aaaabbbccccddddeeeeffffgggghhhhiiiijjjjkkkkkllllmmmmmnnnnnoooooppppppqqqqqqqrrrrrrrsssssssssttttttttttttuuuuuuuuuuuuuuuuuuuuuuuuuuuuuuuuuuuuttttttttttttsssssssssrrrrrrrqqqqqqqppppppooooonnnnnmmmmmllllkkkkkjjjjiiiihhhhggggffffeeeeddddccccbbbaaaa-..-
(PID.TID 0000.0001) //    177 -..-aaaabbbccccddddeeeeffffgggghhhhiiiijjjjkkkklllllmmmmnnnnnoooooopppppqqqqqqrrrrrrrssssssssstttttttttttuuuuuuuuuuuuuuuuuuuuuuuuuuuuuuuuuuuuuuuuuutttttttttttsssssssssrrrrrrrqqqqqqpppppoooooonnnnnmmmmlllllkkkkjjjjiiiihhhhggggffffeeeeddddccccbbbaaaa-..-
(PID.TID 0000.0001) //    176 -..-aaaabbbccccddddeeeffffgggghhhhiiiijjjjkkkkkllllmmmmmnnnnnooooopppppqqqqqqrrrrrrrssssssssttttttttttuuuuuuuuuuuuuuuuuuuuuuuuuuuuuuuuuuuuuuuuuuuuuuuuttttttttttssssssssrrrrrrrqqqqqqpppppooooonnnnnmmmmmllllkkkkkjjjjiiiihhhhggggffffeeeddddccccbbbaaaa-..-
(PID.TID 0000.0001) //    175 -..-aaaabbbccccddddeeeffffgggghhhhiiiijjjjkkkklllllmmmmnnnnnooooopppppqqqqqqrrrrrrrsssssssttttttttttuuuuuuuuuuuuuuuuvvvvvvvvvvvvvvvvvvvvuuuuuuuuuuuuuuuuttttttttttsssssssrrrrrrrqqqqqqpppppooooonnnnnmmmmlllllkkkkjjjjiiiihhhhggggffffeeeddddccccbbbaaaa-..-
(PID.TID 0000.0001) //    174 -..-aaabbbbccccdddeeeeffffgggghhhhiiiijjjjkkkkllllmmmmmnnnnoooooppppppqqqqqrrrrrrrssssssstttttttttuuuuuuuuuuuuuuvvvvvvvvvvvvvvvvvvvvvvvvvvvvuuuuuuuuuuuuuutttttttttsssssssrrrrrrrqqqqqppppppooooonnnnmmmmmllllkkkkjjjjiiiihhhhggggffffeeeedddccccbbbbaaa-..-
(PID.TID 0000.0001) //    173 -..-aaabbbbccccdddeeeeffffggghhhhiiiijjjjkkkklllllmmmmnnnnnooooopppppqqqqqrrrrrrrsssssssttttttttuuuuuuuuuuuuvvvvvvvvvvvvvvvvvvvvvvvvvvvvvvvvvvvvuuuuuuuuuuuuttttttttsssssssrrrrrrrqqqqqpppppooooonnnnnmmmmlllllkkkkjjjjiiiihhhhgggffffeeeedddccccbbbbaaa-..-
(PID.TID 0000.0001) //    172 -..-aaabbbbcccddddeeeefffgggghhhhiiiijjjjkkkkllllmmmmnnnnnooooopppppqqqqqrrrrrrsssssssttttttttuuuuuuuuuuuvvvvvvvvvvvvvvvvvvvvvvvvvvvvvvvvvvvvvvvvvvuuuuuuuuuuuttttttttsssssssrrrrrrqqqqqpppppooooonnnnnmmmmllllkkkkjjjjiiiihhhhggggfffeeeeddddcccbbbbaaa-..-
(PID.TID 0000.0001) //    171 -..-aaabbbbcccddddeeeefffgggghhhhiiiijjjkkkklllllmmmmnnnnooooopppppqqqqqqrrrrrsssssssttttttttuuuuuuuuuuvvvvvvvvvvvvvvvvvvvvvvvvvvvvvvvvvvvvvvvvvvvvvvuuuuuuuuuuttttttttsssssssrrrrrqqqqqqpppppooooonnnnmmmmlllllkkkkjjjiiiihhhhggggfffeeeeddddcccbbbbaaa-..-
(PID.TID 0000.0001) //    170 -..-aaabbbbcccddddeeeffffgggghhhiiiijjjjkkkkllllmmmmnnnnnoooooppppqqqqqqrrrrrrsssssstttttttuuuuuuuuuuvvvvvvvvvvvvvvvvwwwwwwwwwwwwwwwwwwvvvvvvvvvvvvvvvvuuuuuuuuuutttttttssssssrrrrrrqqqqqqppppooooonnnnnmmmmllllkkkkjjjjiiiihhhggggffffeeeddddcccbbbbaaa-..-
(PID.TID 0000.0001) //    169 -..-aaabbbbcccddddeeeffffggghhhhiiiijjjjkkkkllllmmmmnnnnooooopppppqqqqqrrrrrrsssssstttttttuuuuuuuuuvvvvvvvvvvvvvvwwwwwwwwwwwwwwwwwwwwwwwwwwvvvvvvvvvvvvvvuuuuuuuuutttttttssssssrrrrrrqqqqqpppppooooonnnnmmmmllllkkkkjjjjiiiihhhhgggffffeeeddddcccbbbbaaa-..-
(PID.TID 0000.0001) //    168 -..-aaabbbbcccddddeeeffffggghhhhiiiijjjkkkkllllmmmmmnnnnoooopppppqqqqqrrrrrrsssssstttttttuuuuuuuuvvvvvvvvvvvvwwwwwwwwwwwwwwwwwwwwwwwwwwwwwwwwwwvvvvvvvvvvvvuuuuuuuutttttttssssssrrrrrrqqqqqpppppoooonnnnmmmmmllllkkkkjjjiiiihhhhgggffffeeeddddcccbbbbaaa-..-
(PID.TID 0000.0001) //    167 -..-aaabbbbcccdddeeeefffgggghhhhiiijjjjkkkkllllmmmmnnnnooooopppppqqqqqrrrrrsssssstttttttuuuuuuuuvvvvvvvvvvvwwwwwwwwwwwwwwwwwwwwwwwwwwwwwwwwwwwwwwvvvvvvvvvvvuuuuuuuutttttttssssssrrrrrqqqqqpppppooooonnnnmmmmllllkkkkjjjjiiihhhhggggfffeeeedddcccbbbbaaa-..-
(PID.TID 0000.0001) //    166 -..-aaabbbccccdddeeeefffgggghhhiiiijjjjkkkkllllmmmmnnnnoooopppppqqqqqrrrrrsssssstttttttuuuuuuuvvvvvvvvvvvwwwwwwwwwwwwwwwwwwwwwwwwwwwwwwwwwwwwwwwwwwvvvvvvvvvvvuuuuuuutttttttssssssrrrrrqqqqqpppppoooonnnnmmmmllllkkkkjjjjiiiihhhggggfffeeeedddccccbbbaaa-..-
(PID.TID 0000.0001) //    165 -..-aaabbbccccdddeeeefffgggghhhiiiijjjjkkkllllmmmmnnnnoooooppppqqqqqrrrrrsssssstttttttuuuuuuuvvvvvvvvvvwwwwwwwwwwwwwwwwwwwxxxxxxxxwwwwwwwwwwwwwwwwwwwvvvvvvvvvvuuuuuuutttttttssssssrrrrrqqqqqppppooooonnnnmmmmllllkkkjjjjiiiihhhggggfffeeeedddccccbbbaaa-..-
(PID.TID 0000.0001) //    164 -..-aaabbbccccdddeeeefffggghhhhiiiijjjkkkkllllmmmmnnnnoooopppppqqqqqrrrrrssssstttttttuuuuuuuvvvvvvvvvwwwwwwwwwwwwwwwxxxxxxxxxxxxxxxxxxxxwwwwwwwwwwwwwwwvvvvvvvvvuuuuuuutttttttsssssrrrrrqqqqqpppppoooonnnnmmmmllllkkkkjjjiiiihhhhgggfffeeeedddccccbbbaaa-..-
(PID.TID 0000.0001) //    163 -..-aaabbbccccdddeeeffffggghhhhiiijjjjkkkkllllmmmmnnnnooooppppqqqqqrrrrrssssssttttttuuuuuuuvvvvvvvvwwwwwwwwwwwwwxxxxxxxxxxxxxxxxxxxxxxxxxxxxwwwwwwwwwwwwwvvvvvvvvuuuuuuuttttttssssssrrrrrqqqqqppppoooonnnnmmmmllllkkkkjjjjiiihhhhgggffffeeedddccccbbbaaa-..-
(PID.TID 0000.0001) //    162 -..-aaabbbccccdddeeeffffggghhhhiiijjjjkkkllllmmmmnnnnoooopppppqqqqrrrrrssssssttttttuuuuuuuvvvvvvvvwwwwwwwwwwwwxxxxxxxxxxxxxxxxxxxxxxxxxxxxxxxxwwwwwwwwwwwwvvvvvvvvuuuuuuuttttttssssssrrrrrqqqqpppppoooonnnnmmmmllllkkkjjjjiiihhhhgggffffeeedddccccbbbaaa-..-
(PID.TID 0000.0001) //    161 -..-aaabbbccccdddeeeffffggghhhiiiijjjjkkkllllmmmmnnnnooooppppqqqqqrrrrrsssssttttttuuuuuuuvvvvvvvvwwwwwwwwwwxxxxxxxxxxxxxxxxxxxxxxxxxxxxxxxxxxxxxxwwwwwwwwwwvvvvvvvvuuuuuuuttttttsssssrrrrrqqqqqppppoooonnnnmmmmllllkkkjjjjiiiihhhgggffffeeedddccccbbbaaa-..-
(PID.TID 0000.0001) //    160 -..-aaabbbcccddddeeefffgggghhhiiiijjjkkkkllllmmmnnnnoooooppppqqqqrrrrrsssssttttttuuuuuuuvvvvvvvwwwwwwwwwwwxxxxxxxxxxxxxxxxxxxxxxxxxxxxxxxxxxxxxxxxwwwwwwwwwwwvvvvvvvuuuuuuuttttttsssssrrrrrqqqqppppooooonnnnmmmllllkkkkjjjiiiihhhggggfffeeeddddcccbbbaaa-..-
(PID.TID 0000.0001) //    159 -..-aaabbbcccddddeeefffgggghhhiiiijjjkkkklllmmmmnnnnooooppppqqqqqrrrrrssssstttttuuuuuuuvvvvvvvwwwwwwwwwwxxxxxxxxxxxxxxxxxxxxxxxxxxxxxxxxxxxxxxxxxxxxwwwwwwwwwwvvvvvvvuuuuuuutttttsssssrrrrrqqqqqppppoooonnnnmmmmlllkkkkjjjiiiihhhggggfffeeeddddcccbbbaaa-..-
(PID.TID 0000.0001) //    158 -..-aaabbbcccddddeeefffggghhhhiiijjjjkkkllllmmmmnnnnooooppppqqqqrrrrrsssssttttttuuuuuuvvvvvvvwwwwwwwwwxxxxxxxxxxxxxxxxxyyyyyyyyyyyyyyxxxxxxxxxxxxxxxxxwwwwwwwwwvvvvvvvuuuuuuttttttsssssrrrrrqqqqppppoooonnnnmmmmllllkkkjjjjiiihhhhgggfffeeeddddcccbbbaaa-..-
(PID.TID 0000.0001) //    157 -..-aaabbbcccdddeeeefffggghhhhiiijjjjkkkllllmmmmnnnoooopppppqqqqrrrrrssssstttttuuuuuuvvvvvvvwwwwwwwwwxxxxxxxxxxxxxxyyyyyyyyyyyyyyyyyyyyyyxxxxxxxxxxxxxxwwwwwwwwwvvvvvvvuuuuuutttttsssssrrrrrqqqqpppppoooonnnmmmmllllkkkjjjjiiihhhhgggfffeeeedddcccbbbaaa-..-
(PID.TID 0000.0001) //    156 -..-aaabbbcccdddeeeefffggghhhhiiijjjkkkkllllmmmnnnnooooppppqqqqqrrrrssssstttttuuuuuuvvvvvvvwwwwwwwwwxxxxxxxxxxxxyyyyyyyyyyyyyyyyyyyyyyyyyyyyxxxxxxxxxxxxwwwwwwwwwvvvvvvvuuuuuutttttsssssrrrrqqqqqppppoooonnnnmmmllllkkkkjjjiiihhhhgggfffeeeedddcccbbbaaa-..-
(PID.TID 0000.0001) //    155 -..-aaabbbcccdddeeeefffggghhhiiiijjjkkkklllmmmmnnnnooooppppqqqqrrrrrssssstttttuuuuuuvvvvvvwwwwwwwwxxxxxxxxxxxxyyyyyyyyyyyyyyyyyyyyyyyyyyyyyyyyxxxxxxxxxxxxwwwwwwwwvvvvvvuuuuuutttttsssssrrrrrqqqqppppoooonnnnmmmmlllkkkkjjjiiiihhhgggfffeeeedddcccbbbaaa-..-
(PID.TID 0000.0001) //    154 -..-aaabbbcccdddeeeffffggghhhiiiijjjkkkklllmmmmnnnnooopppppqqqqrrrrssssstttttuuuuuuvvvvvvvwwwwwwwxxxxxxxxxxxyyyyyyyyyyyyyyyyyyyyyyyyyyyyyyyyyyyyxxxxxxxxxxxwwwwwwwvvvvvvvuuuuuutttttsssssrrrrqqqqpppppooonnnnmmmmlllkkkkjjjiiiihhhgggffffeeedddcccbbbaaa-..-
(PID.TID 0000.0001) //    153 -..-aaabbbcccdddeeeffffggghhhiiijjjjkkkllllmmmmnnnooooppppqqqqrrrrrssssstttttuuuuuvvvvvvvwwwwwwwxxxxxxxxxxxyyyyyyyyyyyyyyyyyyyyyyyyyyyyyyyyyyyyyyxxxxxxxxxxxwwwwwwwvvvvvvvuuuuutttttsssssrrrrrqqqqppppoooonnnmmmmllllkkkjjjjiiihhhgggffffeeedddcccbbbaaa-..-
(PID.TID 0000.0001) //    152 -..-aaabbbcccdddeeefffgggghhhiiijjjjkkkllllmmmnnnnooooppppqqqqrrrrssssstttttuuuuuuvvvvvvwwwwwwwxxxxxxxxxxyyyyyyyyyyyyyyyyyyyyyyyyyyyyyyyyyyyyyyyyyyxxxxxxxxxxwwwwwwwvvvvvvuuuuuutttttsssssrrrrqqqqppppoooonnnnmmmllllkkkjjjjiiihhhggggfffeeedddcccbbbaaa-..-
(PID.TID 0000.0001) //    151 -..-aaabbbcccdddeeefffgggghhhiiijjjjkkklllmmmmnnnnooooppppqqqqrrrrssssstttttuuuuuvvvvvvwwwwwwwwxxxxxxxxxyyyyyyyyyyyyyyyyyyyyyyyyyyyyyyyyyyyyyyyyyyyyxxxxxxxxxwwwwwwwwvvvvvvuuuuutttttsssssrrrrqqqqppppoooonnnnmmmmlllkkkjjjjiiihhhggggfffeeedddcccbbbaaa-..-
(PID.TID 0000.0001) //    150 -..-aaabbbcccdddeeefffggghhhhiiijjjkkkklllmmmmnnnnoooppppqqqqrrrrrsssstttttuuuuuuvvvvvvwwwwwwwxxxxxxxxxyyyyyyyyyyyyyyyyzzzzzzzzzzzzzzyyyyyyyyyyyyyyyyxxxxxxxxxwwwwwwwvvvvvvuuuuuutttttssssrrrrrqqqqppppooonnnnmmmmlllkkkkjjjiiihhhhgggfffeeedddcccbbbaaa-..-
(PID.TID 0000.0001) //    149 -..-aaabbbcccdddeeefffggghhhhiiijjjkkkklllmmmmnnnooooppppqqqqrrrrssssstttttuuuuuvvvvvvwwwwwwwxxxxxxxxxyyyyyyyyyyyyyyzzzzzzzzzzzzzzzzzzzzyyyyyyyyyyyyyyxxxxxxxxxwwwwwwwvvvvvvuuuuutttttsssssrrrrqqqqppppoooonnnmmmmlllkkkkjjjiiihhhhgggfffeeedddcccbbbaaa-..-
(PID.TID 0000.0001) //    148 -..-aaabbbcccdddeeefffggghhhhiiijjjkkkllllmmmnnnnooooppppqqqqrrrrsssssttttuuuuuuvvvvvvwwwwwwxxxxxxxxxyyyyyyyyyyyyyzzzzzzzzzzzzzzzzzzzzzzzzyyyyyyyyyyyyyxxxxxxxxxwwwwwwvvvvvvuuuuuuttttsssssrrrrqqqqppppoooonnnnmmmllllkkkjjjiiihhhhgggfffeeedddcccbbbaaa-..-
(PID.TID 0000.0001) //    147 -..-aaabbbcccdddeeefffggghhhiiiijjjkkkllllmmmnnnnooooppppqqqqrrrrsssstttttuuuuuvvvvvvwwwwwwwxxxxxxxxyyyyyyyyyyyyzzzzzzzzzzzzzzzzzzzzzzzzzzzzyyyyyyyyyyyyxxxxxxxxwwwwwwwvvvvvvuuuuutttttssssrrrrqqqqppppoooonnnnmmmllllkkkjjjiiiihhhgggfffeeedddcccbbbaaa-..-
(PID.TID 0000.0001) //    146 -..-aaabbbcccdddeeefffggghhhiiiijjjkkkllllmmmnnnnoooppppqqqqrrrrssssstttttuuuuuvvvvvvwwwwwwxxxxxxxxyyyyyyyyyyyzzzzzzzzzzzzzzzzzzzzzzzzzzzzzzzzyyyyyyyyyyyxxxxxxxxwwwwwwvvvvvvuuuuutttttsssssrrrrqqqqppppooonnnnmmmllllkkkjjjiiiihhhgggfffeeedddcccbbbaaa-..-
(PID.TID 0000.0001) //    145 -..-aaabbbcccdddeeefffggghhhiiijjjjkkklllmmmmnnnnoooppppqqqqrrrrsssssttttuuuuuvvvvvvwwwwwwwxxxxxxxyyyyyyyyyyyzzzzzzzzzzzzzzzzzzzzzzzzzzzzzzzzzzyyyyyyyyyyyxxxxxxxwwwwwwwvvvvvvuuuuuttttsssssrrrrqqqqppppooonnnnmmmmlllkkkjjjjiiihhhgggfffeeedddcccbbbaaa-..-
(PID.TID 0000.0001) //    144 -..-aaabbbcccdddeeefffggghhhiiijjjjkkklllmmmmnnnooooppppqqqqrrrrsssstttttuuuuuvvvvvvwwwwwwxxxxxxxxyyyyyyyyyyzzzzzzzzzzzzzzzzzzzzzzzzzzzzzzzzzzzzyyyyyyyyyyxxxxxxxxwwwwwwvvvvvvuuuuutttttssssrrrrqqqqppppoooonnnmmmmlllkkkjjjjiiihhhgggfffeeedddcccbbbaaa-..-
(PID.TID 0000.0001) //    143 -..-aaabbbcccdddeeefffggghhhiiijjjkkkklllmmmmnnnooooppppqqqqrrrrsssstttttuuuuuvvvvvwwwwwwxxxxxxxxyyyyyyyyyyzzzzzzzzzzzzzzzzzzzzzzzzzzzzzzzzzzzzzzyyyyyyyyyyxxxxxxxxwwwwwwvvvvvuuuuutttttssssrrrrqqqqppppoooonnnmmmmlllkkkkjjjiiihhhgggfffeeedddcccbbbaaa-..-
(PID.TID 0000.0001) //    142 -..-aaabbbcccdddeeefffggghhhiiijjjkkkklllmmmnnnnoooopppqqqqrrrrsssssttttuuuuuvvvvvvwwwwwwxxxxxxxyyyyyyyyyyzzzzzzzzzzzzzzzzzzzzzzzzzzzzzzzzzzzzzzzzyyyyyyyyyyxxxxxxxwwwwwwvvvvvvuuuuuttttsssssrrrrqqqqpppoooonnnnmmmlllkkkkjjjiiihhhgggfffeeedddcccbbbaaa-..-
(PID.TID 0000.0001) //    141 -..-aaabbbcccdddeeefffggghhhiiijjjkkkklllmmmnnnnoooopppqqqqrrrrsssssttttuuuuuvvvvvwwwwwwwxxxxxxxyyyyyyyyyzzzzzzzzzzzzzzzzzzzzzzzzzzzzzzzzzzzzzzzzzzyyyyyyyyyxxxxxxxwwwwwwwvvvvvuuuuuttttsssssrrrrqqqqpppoooonnnnmmmlllkkkkjjjiiihhhgggfffeeedddcccbbbaaa-..-
(PID.TID 0000.0001) //    140 -..-aaabbcccddddeeefffggghhhiiijjjkkkllllmmmnnnnoooppppqqqqrrrrsssstttttuuuuuvvvvvwwwwwwxxxxxxxyyyyyyyyyzzzzzzzzzzzzzzzzzzzzzzzzzzzzzzzzzzzzzzzzzzzzyyyyyyyyyxxxxxxxwwwwwwvvvvvuuuuutttttssssrrrrqqqqppppooonnnnmmmllllkkkjjjiiihhhgggfffeeeddddcccbbaaa-..-
(PID.TID 0000.0001) //    139 -..-aabbbcccdddeeeffffggghhhiiijjjkkkllllmmmnnnnoooppppqqqqrrrrsssstttttuuuuuvvvvvwwwwwwxxxxxxxyyyyyyyyyzzzzzzzzzzzzzzzzz++++++++++zzzzzzzzzzzzzzzzzyyyyyyyyyxxxxxxxwwwwwwvvvvvuuuuutttttssssrrrrqqqqppppooonnnnmmmllllkkkjjjiiihhhgggffffeeedddcccbbbaa-..-
(PID.TID 0000.0001) //    138 -..-aabbbcccdddeeeffffggghhhiiijjjkkkllllmmmnnnnoooppppqqqqrrrrssssttttuuuuuvvvvvvwwwwwxxxxxxxyyyyyyyyyzzzzzzzzzzzzzzzz++++++++++++++zzzzzzzzzzzzzzzzyyyyyyyyyxxxxxxxwwwwwvvvvvvuuuuuttttssssrrrrqqqqppppooonnnnmmmllllkkkjjjiiihhhgggffffeeedddcccbbbaa-..-
(PID.TID 0000.0001) //    137 -..-aabbbcccdddeeefffgggghhhiiijjjkkkllllmmmnnnooooppppqqqqrrrrssssttttuuuuuvvvvvwwwwwwxxxxxxxyyyyyyyyyzzzzzzzzzzzzzz++++++++++++++++++zzzzzzzzzzzzzzyyyyyyyyyxxxxxxxwwwwwwvvvvvuuuuuttttssssrrrrqqqqppppoooonnnmmmllllkkkjjjiiihhhggggfffeeedddcccbbbaa-..-
(PID.TID 0000.0001) //    136 -..-aabbbcccdddeeefffggghhhhiiijjjkkklllmmmmnnnooooppppqqqrrrrsssssttttuuuuuvvvvvwwwwwwxxxxxxxyyyyyyyyzzzzzzzzzzzzzz++++++++++++++++++++zzzzzzzzzzzzzzyyyyyyyyxxxxxxxwwwwwwvvvvvuuuuuttttsssssrrrrqqqppppoooonnnmmmmlllkkkjjjiiihhhhgggfffeeedddcccbbbaa-..-
(PID.TID 0000.0001) //    135 -..-aabbbcccdddeeefffggghhhhiiijjjkkklllmmmmnnnoooopppqqqqrrrrsssstttttuuuuuvvvvvwwwwwwxxxxxxyyyyyyyyyzzzzzzzzzzzzz++++++++++++++++++++++zzzzzzzzzzzzzyyyyyyyyyxxxxxxwwwwwwvvvvvuuuuutttttssssrrrrqqqqpppoooonnnmmmmlllkkkjjjiiihhhhgggfffeeedddcccbbbaa-..-
(PID.TID 0000.0001) //    134 -..-aabbbcccdddeeefffggghhhiiiijjjkkklllmmmmnnnoooopppqqqqrrrrsssstttttuuuuvvvvvvwwwwwxxxxxxxyyyyyyyyzzzzzzzzzzzzz++++++++++++++++++++++++zzzzzzzzzzzzzyyyyyyyyxxxxxxxwwwwwvvvvvvuuuutttttssssrrrrqqqqpppoooonnnmmmmlllkkkjjjiiiihhhgggfffeeedddcccbbbaa-..-
(PID.TID 0000.0001) //    133 a..aaabbbcccdddeeefffggghhhiiiijjjkkklllmmmmnnnoooopppqqqqrrrrsssstttttuuuuvvvvvwwwwwwxxxxxxxyyyyyyyyzzzzzzzzzzzz++++++++++++++++++++++++++zzzzzzzzzzzzyyyyyyyyxxxxxxxwwwwwwvvvvvuuuutttttssssrrrrqqqqpppoooonnnmmmmlllkkkjjjiiiihhhgggfffeeedddcccbbbaaa..a
(PID.TID 0000.0001) //    132 a..aaabbbcccdddeeefffggghhhiiiijjjkkklllmmmmnnnoooopppqqqqrrrrssssttttuuuuuvvvvvwwwwwwxxxxxxxyyyyyyyyzzzzzzzzzzzz++++++++++++++++++++++++++zzzzzzzzzzzzyyyyyyyyxxxxxxxwwwwwwvvvvvuuuuuttttssssrrrrqqqqpppoooonnnmmmmlllkkkjjjiiiihhhgggfffeeedddcccbbbaaa..a
(PID.TID 0000.0001) //    131 a..aaabbbcccdddeeefffggghhhiiiijjjkkklllmmmmnnnoooppppqqqqrrrrssssttttuuuuuvvvvvwwwwwwxxxxxxyyyyyyyyzzzzzzzzzzzz++++++++++++++++++++++++++++zzzzzzzzzzzzyyyyyyyyxxxxxxwwwwwwvvvvvuuuuuttttssssrrrrqqqqppppooonnnmmmmlllkkkjjjiiiihhhgggfffeeedddcccbbbaaa..a
(PID.TID 0000.0001) //    130 a..aaabbbcccdddeeefffggghhhiiijjjjkkklllmmmnnnnoooppppqqqqrrrrssssttttuuuuuvvvvvwwwwwwxxxxxxyyyyyyyyzzzzzzzzzzzz++++++++++++++++++++++++++++zzzzzzzzzzzzyyyyyyyyxxxxxxwwwwwwvvvvvuuuuuttttssssrrrrqqqqppppooonnnnmmmlllkkkjjjjiiihhhgggfffeeedddcccbbbaaa..a
(PID.TID 0000.0001) //    129 a..aaabbbcccdddeeefffggghhhiiijjjjkkklllmmmnnnnoooppppqqqqrrrrssssttttuuuuuvvvvvwwwwwwxxxxxxyyyyyyyyzzzzzzzzzzz++++++++++++++++++++++++++++++zzzzzzzzzzzyyyyyyyyxxxxxxwwwwwwvvvvvuuuuuttttssssrrrrqqqqppppooonnnnmmmlllkkkjjjjiiihhhgggfffeeedddcccbbbaaa..a
(PID.TID 0000.0001) //    128 a..aaabbbcccdddeeefffggghhhiiijjjjkkklllmmmnnnnoooppppqqqqrrrrssssttttuuuuuvvvvvwwwwwxxxxxxxyyyyyyyyzzzzzzzzzzz++++++++++++++++++++++++++++++zzzzzzzzzzzyyyyyyyyxxxxxxxwwwwwvvvvvuuuuuttttssssrrrrqqqqppppooonnnnmmmlllkkkjjjjiiihhhgggfffeeedddcccbbbaaa..a
(PID.TID 0000.0001) //    127 a..aaabbbcccdddeeefffggghhhiiijjjjkkklllmmmnnnnoooppppqqqqrrrrssssttttuuuuuvvvvvwwwwwxxxxxxxyyyyyyyyzzzzzzzzzzz++++++++++++++++++++++++++++++zzzzzzzzzzzyyyyyyyyxxxxxxxwwwwwvvvvvuuuuuttttssssrrrrqqqqppppooonnnnmmmlllkkkjjjjiiihhhgggfffeeedddcccbbbaaa..a
(PID.TID 0000.0001) //    126 a..aaabbbcccdddeeefffggghhhiiijjjjkkklllmmmnnnnoooppppqqqqrrrrssssttttuuuuuvvvvvwwwwwxxxxxxxyyyyyyyyzzzzzzzzzzz++++++++++++++++++++++++++++++zzzzzzzzzzzyyyyyyyyxxxxxxxwwwwwvvvvvuuuuuttttssssrrrrqqqqppppooonnnnmmmlllkkkjjjjiiihhhgggfffeeedddcccbbbaaa..a
(PID.TID 0000.0001) //    125 a..aaabbbcccdddeeefffggghhhiiijjjjkkklllmmmnnnnoooppppqqqqrrrrssssttttuuuuuvvvvvwwwwwxxxxxxxyyyyyyyyzzzzzzzzzzz++++++++++++++++++++++++++++++zzzzzzzzzzzyyyyyyyyxxxxxxxwwwwwvvvvvuuuuuttttssssrrrrqqqqppppooonnnnmmmlllkkkjjjjiiihhhgggfffeeedddcccbbbaaa..a
(PID.TID 0000.0001) //    124 a..aaabbbcccdddeeefffggghhhiiijjjjkkklllmmmnnnnoooppppqqqqrrrrssssttttuuuuuvvvvvwwwwwxxxxxxxyyyyyyyyzzzzzzzzzzz++++++++++++++++++++++++++++++zzzzzzzzzzzyyyyyyyyxxxxxxxwwwwwvvvvvuuuuuttttssssrrrrqqqqppppooonnnnmmmlllkkkjjjjiiihhhgggfffeeedddcccbbbaaa..a
(PID.TID 0000.0001) //    123 a..aaabbbcccdddeeefffggghhhiiijjjjkkklllmmmnnnnoooppppqqqqrrrrssssttttuuuuuvvvvvwwwwwxxxxxxxyyyyyyyyzzzzzzzzzzz++++++++++++++++++++++++++++++zzzzzzzzzzzyyyyyyyyxxxxxxxwwwwwvvvvvuuuuuttttssssrrrrqqqqppppooonnnnmmmlllkkkjjjjiiihhhgggfffeeedddcccbbbaaa..a
(PID.TID 0000.0001) //    122 a..aaabbbcccdddeeefffggghhhiiijjjjkkklllmmmnnnnoooppppqqqqrrrrssssttttuuuuuvvvvvwwwwwxxxxxxxyyyyyyyyzzzzzzzzzzz++++++++++++++++++++++++++++++zzzzzzzzzzzyyyyyyyyxxxxxxxwwwwwvvvvvuuuuuttttssssrrrrqqqqppppooonnnnmmmlllkkkjjjjiiihhhgggfffeeedddcccbbbaaa..a
(PID.TID 0000.0001) //    121 a..aaabbbcccdddeeefffggghhhiiijjjjkkklllmmmnnnnoooppppqqqqrrrrssssttttuuuuuvvvvvwwwwwxxxxxxxyyyyyyyyzzzzzzzzzzz++++++++++++++++++++++++++++++zzzzzzzzzzzyyyyyyyyxxxxxxxwwwwwvvvvvuuuuuttttssssrrrrqqqqppppooonnnnmmmlllkkkjjjjiiihhhgggfffeeedddcccbbbaaa..a
(PID.TID 0000.0001) //    120 a..aaabbbcccdddeeefffggghhhiiijjjjkkklllmmmnnnnoooppppqqqqrrrrssssttttuuuuuvvvvvwwwwwwxxxxxxyyyyyyyyzzzzzzzzzzz++++++++++++++++++++++++++++++zzzzzzzzzzzyyyyyyyyxxxxxxwwwwwwvvvvvuuuuuttttssssrrrrqqqqppppooonnnnmmmlllkkkjjjjiiihhhgggfffeeedddcccbbbaaa..a
(PID.TID 0000.0001) //    119 a..aaabbbcccdddeeefffggghhhiiijjjjkkklllmmmnnnnoooppppqqqqrrrrssssttttuuuuuvvvvvwwwwwwxxxxxxyyyyyyyyzzzzzzzzzzzz++++++++++++++++++++++++++++zzzzzzzzzzzzyyyyyyyyxxxxxxwwwwwwvvvvvuuuuuttttssssrrrrqqqqppppooonnnnmmmlllkkkjjjjiiihhhgggfffeeedddcccbbbaaa..a
(PID.TID 0000.0001) //    118 a..aaabbbcccdddeeefffggghhhiiiijjjkkklllmmmmnnnoooppppqqqqrrrrssssttttuuuuuvvvvvwwwwwwxxxxxxyyyyyyyyzzzzzzzzzzzz++++++++++++++++++++++++++++zzzzzzzzzzzzyyyyyyyyxxxxxxwwwwwwvvvvvuuuuuttttssssrrrrqqqqppppooonnnmmmmlllkkkjjjiiiihhhgggfffeeedddcccbbbaaa..a
(PID.TID 0000.0001) //    117 a..aaabbbcccdddeeefffggghhhiiiijjjkkklllmmmmnnnoooopppqqqqrrrrssssttttuuuuuvvvvvwwwwwwxxxxxxxyyyyyyyyzzzzzzzzzzzz++++++++++++++++++++++++++zzzzzzzzzzzzyyyyyyyyxxxxxxxwwwwwwvvvvvuuuuuttttssssrrrrqqqqpppoooonnnmmmmlllkkkjjjiiiihhhgggfffeeedddcccbbbaaa..a
(PID.TID 0000.0001) //    116 a..aaabbbcccdddeeefffggghhhiiiijjjkkklllmmmmnnnoooopppqqqqrrrrsssstttttuuuuvvvvvwwwwwwxxxxxxxyyyyyyyyzzzzzzzzzzzz++++++++++++++++++++++++++zzzzzzzzzzzzyyyyyyyyxxxxxxxwwwwwwvvvvvuuuutttttssssrrrrqqqqpppoooonnnmmmmlllkkkjjjiiiihhhgggfffeeedddcccbbbaaa..a
(PID.TID 0000.0001) //    115 -..-aabbbcccdddeeefffggghhhiiiijjjkkklllmmmmnnnoooopppqqqqrrrrsssstttttuuuuvvvvvvwwwwwxxxxxxxyyyyyyyyzzzzzzzzzzzzz++++++++++++++++++++++++zzzzzzzzzzzzzyyyyyyyyxxxxxxxwwwwwvvvvvvuuuutttttssssrrrrqqqqpppoooonnnmmmmlllkkkjjjiiiihhhgggfffeeedddcccbbbaa-..-
(PID.TID 0000.0001) //    114 -..-aabbbcccdddeeefffggghhhhiiijjjkkklllmmmmnnnoooopppqqqqrrrrsssstttttuuuuuvvvvvwwwwwwxxxxxxyyyyyyyyyzzzzzzzzzzzzz++++++++++++++++++++++zzzzzzzzzzzzzyyyyyyyyyxxxxxxwwwwwwvvvvvuuuuutttttssssrrrrqqqqpppoooonnnmmmmlllkkkjjjiiihhhhgggfffeeedddcccbbbaa-..-
(PID.TID 0000.0001) //    113 -..-aabbbcccdddeeefffggghhhhiiijjjkkklllmmmmnnnooooppppqqqrrrrsssssttttuuuuuvvvvvwwwwwwxxxxxxxyyyyyyyyzzzzzzzzzzzzzz++++++++++++++++++++zzzzzzzzzzzzzzyyyyyyyyxxxxxxxwwwwwwvvvvvuuuuuttttsssssrrrrqqqppppoooonnnmmmmlllkkkjjjiiihhhhgggfffeeedddcccbbbaa-..-
(PID.TID 0000.0001) //    112 -..-aabbbcccdddeeefffgggghhhiiijjjkkkllllmmmnnnooooppppqqqqrrrrssssttttuuuuuvvvvvwwwwwwxxxxxxxyyyyyyyyyzzzzzzzzzzzzzz++++++++++++++++++zzzzzzzzzzzzzzyyyyyyyyyxxxxxxxwwwwwwvvvvvuuuuuttttssssrrrrqqqqppppoooonnnmmmllllkkkjjjiiihhhggggfffeeedddcccbbbaa-..-
(PID.TID 0000.0001) //    111 -..-aabbbcccdddeeeffffggghhhiiijjjkkkllllmmmnnnnoooppppqqqqrrrrssssttttuuuuuvvvvvvwwwwwxxxxxxxyyyyyyyyyzzzzzzzzzzzzzzzz++++++++++++++zzzzzzzzzzzzzzzzyyyyyyyyyxxxxxxxwwwwwvvvvvvuuuuuttttssssrrrrqqqqppppooonnnnmmmllllkkkjjjiiihhhgggffffeeedddcccbbbaa-..-
(PID.TID 0000.0001) //    110 -..-aabbbcccdddeeeffffggghhhiiijjjkkkllllmmmnnnnoooppppqqqqrrrrsssstttttuuuuuvvvvvwwwwwwxxxxxxxyyyyyyyyyzzzzzzzzzzzzzzzzz++++++++++zzzzzzzzzzzzzzzzzyyyyyyyyyxxxxxxxwwwwwwvvvvvuuuuutttttssssrrrrqqqqppppooonnnnmmmllllkkkjjjiiihhhgggffffeeedddcccbbbaa-..-
(PID.TID 0000.0001) //    109 -..-aaabbcccddddeeefffggghhhiiijjjkkkllllmmmnnnnoooppppqqqqrrrrsssstttttuuuuuvvvvvwwwwwwxxxxxxxyyyyyyyyyzzzzzzzzzzzzzzzzzzzzzzzzzzzzzzzzzzzzzzzzzzzzyyyyyyyyyxxxxxxxwwwwwwvvvvvuuuuutttttssssrrrrqqqqppppooonnnnmmmllllkkkjjjiiihhhgggfffeeeddddcccbbaaa-..-
(PID.TID 0000.0001) //    108 -..-aaabbbcccdddeeefffggghhhiiijjjkkkklllmmmnnnnoooopppqqqqrrrrsssssttttuuuuuvvvvvwwwwwwwxxxxxxxyyyyyyyyyzzzzzzzzzzzzzzzzzzzzzzzzzzzzzzzzzzzzzzzzzzyyyyyyyyyxxxxxxxwwwwwwwvvvvvuuuuuttttsssssrrrrqqqqpppoooonnnnmmmlllkkkkjjjiiihhhgggfffeeedddcccbbbaaa-..-
(PID.TID 0000.0001) //    107 -..-aaabbbcccdddeeefffggghhhiiijjjkkkklllmmmnnnnoooopppqqqqrrrrsssssttttuuuuuvvvvvvwwwwwwxxxxxxxyyyyyyyyyyzzzzzzzzzzzzzzzzzzzzzzzzzzzzzzzzzzzzzzzzyyyyyyyyyyxxxxxxxwwwwwwvvvvvvuuuuuttttsssssrrrrqqqqpppoooonnnnmmmlllkkkkjjjiiihhhgggfffeeedddcccbbbaaa-..-
(PID.TID 0000.0001) //    106 -..-aaabbbcccdddeeefffggghhhiiijjjkkkklllmmmmnnnooooppppqqqqrrrrsssstttttuuuuuvvvvvwwwwwwxxxxxxxxyyyyyyyyyyzzzzzzzzzzzzzzzzzzzzzzzzzzzzzzzzzzzzzzyyyyyyyyyyxxxxxxxxwwwwwwvvvvvuuuuutttttssssrrrrqqqqppppoooonnnmmmmlllkkkkjjjiiihhhgggfffeeedddcccbbbaaa-..-
(PID.TID 0000.0001) //    105 -..-aaabbbcccdddeeefffggghhhiiijjjjkkklllmmmmnnnooooppppqqqqrrrrsssstttttuuuuuvvvvvvwwwwwwxxxxxxxxyyyyyyyyyyzzzzzzzzzzzzzzzzzzzzzzzzzzzzzzzzzzzzyyyyyyyyyyxxxxxxxxwwwwwwvvvvvvuuuuutttttssssrrrrqqqqppppoooonnnmmmmlllkkkjjjjiiihhhgggfffeeedddcccbbbaaa-..-
(PID.TID 0000.0001) //    104 -..-aaabbbcccdddeeefffggghhhiiijjjjkkklllmmmmnnnnoooppppqqqqrrrrsssssttttuuuuuvvvvvvwwwwwwwxxxxxxxyyyyyyyyyyyzzzzzzzzzzzzzzzzzzzzzzzzzzzzzzzzzzyyyyyyyyyyyxxxxxxxwwwwwwwvvvvvvuuuuuttttsssssrrrrqqqqppppooonnnnmmmmlllkkkjjjjiiihhhgggfffeeedddcccbbbaaa-..-
(PID.TID 0000.0001) //    103 -..-aaabbbcccdddeeefffggghhhiiiijjjkkkllllmmmnnnnoooppppqqqqrrrrssssstttttuuuuuvvvvvvwwwwwwxxxxxxxxyyyyyyyyyyyzzzzzzzzzzzzzzzzzzzzzzzzzzzzzzzzyyyyyyyyyyyxxxxxxxxwwwwwwvvvvvvuuuuutttttsssssrrrrqqqqppppooonnnnmmmllllkkkjjjiiiihhhgggfffeeedddcccbbbaaa-..-
(PID.TID 0000.0001) //    102 -..-aaabbbcccdddeeefffggghhhiiiijjjkkkllllmmmnnnnooooppppqqqqrrrrsssstttttuuuuuvvvvvvwwwwwwwxxxxxxxxyyyyyyyyyyyyzzzzzzzzzzzzzzzzzzzzzzzzzzzzyyyyyyyyyyyyxxxxxxxxwwwwwwwvvvvvvuuuuutttttssssrrrrqqqqppppoooonnnnmmmllllkkkjjjiiiihhhgggfffeeedddcccbbbaaa-..-
(PID.TID 0000.0001) //    101 -..-aaabbbcccdddeeefffggghhhhiiijjjkkkllllmmmnnnnooooppppqqqqrrrrsssssttttuuuuuuvvvvvvwwwwwwxxxxxxxxxyyyyyyyyyyyyyzzzzzzzzzzzzzzzzzzzzzzzzyyyyyyyyyyyyyxxxxxxxxxwwwwwwvvvvvvuuuuuuttttsssssrrrrqqqqppppoooonnnnmmmllllkkkjjjiiihhhhgggfffeeedddcccbbbaaa-..-
(PID.TID 0000.0001) //    100 -..-aaabbbcccdddeeefffggghhhhiiijjjkkkklllmmmmnnnooooppppqqqqrrrrssssstttttuuuuuvvvvvvwwwwwwwxxxxxxxxxyyyyyyyyyyyyyyzzzzzzzzzzzzzzzzzzzzyyyyyyyyyyyyyyxxxxxxxxxwwwwwwwvvvvvvuuuuutttttsssssrrrrqqqqppppoooonnnmmmmlllkkkkjjjiiihhhhgggfffeeedddcccbbbaaa-..-
(PID.TID 0000.0001) //     99 -..-aaabbbcccdddeeefffggghhhhiiijjjkkkklllmmmmnnnnoooppppqqqqrrrrrsssstttttuuuuuuvvvvvvwwwwwwwxxxxxxxxxyyyyyyyyyyyyyyyyzzzzzzzzzzzzzzyyyyyyyyyyyyyyyyxxxxxxxxxwwwwwwwvvvvvvuuuuuutttttssssrrrrrqqqqppppooonnnnmmmmlllkkkkjjjiiihhhhgggfffeeedddcccbbbaaa-..-
(PID.TID 0000.0001) //     98 -..-aaabbbcccdddeeefffgggghhhiiijjjjkkklllmmmmnnnnooooppppqqqqrrrrssssstttttuuuuuvvvvvvwwwwwwwwxxxxxxxxxyyyyyyyyyyyyyyyyyyyyyyyyyyyyyyyyyyyyyyyyyyyyxxxxxxxxxwwwwwwwwvvvvvvuuuuutttttsssssrrrrqqqqppppoooonnnnmmmmlllkkkjjjjiiihhhggggfffeeedddcccbbbaaa-..-
(PID.TID 0000.0001) //     97 -..-aaabbbcccdddeeefffgggghhhiiijjjjkkkllllmmmnnnnooooppppqqqqrrrrssssstttttuuuuuuvvvvvvwwwwwwwxxxxxxxxxxyyyyyyyyyyyyyyyyyyyyyyyyyyyyyyyyyyyyyyyyyyxxxxxxxxxxwwwwwwwvvvvvvuuuuuutttttsssssrrrrqqqqppppoooonnnnmmmllllkkkjjjjiiihhhggggfffeeedddcccbbbaaa-..-
(PID.TID 0000.0001) //     96 -..-aaabbbcccdddeeeffffggghhhiiijjjjkkkllllmmmmnnnooooppppqqqqrrrrrssssstttttuuuuuvvvvvvvwwwwwwwxxxxxxxxxxxyyyyyyyyyyyyyyyyyyyyyyyyyyyyyyyyyyyyyyxxxxxxxxxxxwwwwwwwvvvvvvvuuuuutttttsssssrrrrrqqqqppppoooonnnmmmmllllkkkjjjjiiihhhgggffffeeedddcccbbbaaa-..-
(PID.TID 0000.0001) //     95 -..-aaabbbcccdddeeeffffggghhhiiiijjjkkkklllmmmmnnnnooopppppqqqqrrrrssssstttttuuuuuuvvvvvvvwwwwwwwxxxxxxxxxxxyyyyyyyyyyyyyyyyyyyyyyyyyyyyyyyyyyyyxxxxxxxxxxxwwwwwwwvvvvvvvuuuuuutttttsssssrrrrqqqqpppppooonnnnmmmmlllkkkkjjjiiiihhhgggffffeeedddcccbbbaaa-..-
(PID.TID 0000.0001) //     94 -..-aaabbbcccdddeeeefffggghhhiiiijjjkkkklllmmmmnnnnooooppppqqqqrrrrrssssstttttuuuuuuvvvvvvwwwwwwwwxxxxxxxxxxxxyyyyyyyyyyyyyyyyyyyyyyyyyyyyyyyyxxxxxxxxxxxxwwwwwwwwvvvvvvuuuuuutttttsssssrrrrrqqqqppppoooonnnnmmmmlllkkkkjjjiiiihhhgggfffeeeedddcccbbbaaa-..-
(PID.TID 0000.0001) //     93 -..-aaabbbcccdddeeeefffggghhhhiiijjjkkkkllllmmmnnnnooooppppqqqqqrrrrssssstttttuuuuuuvvvvvvvwwwwwwwwwxxxxxxxxxxxxyyyyyyyyyyyyyyyyyyyyyyyyyyyyxxxxxxxxxxxxwwwwwwwwwvvvvvvvuuuuuutttttsssssrrrrqqqqqppppoooonnnnmmmllllkkkkjjjiiihhhhgggfffeeeedddcccbbbaaa-..-
(PID.TID 0000.0001) //     92 -..-aaabbbcccdddeeeefffggghhhhiiijjjjkkkllllmmmmnnnoooopppppqqqqrrrrrssssstttttuuuuuuvvvvvvvwwwwwwwwwxxxxxxxxxxxxxxyyyyyyyyyyyyyyyyyyyyyyxxxxxxxxxxxxxxwwwwwwwwwvvvvvvvuuuuuutttttsssssrrrrrqqqqpppppoooonnnmmmmllllkkkjjjjiiihhhhgggfffeeeedddcccbbbaaa-..-
(PID.TID 0000.0001) //     91 -..-aaabbbcccddddeeefffggghhhhiiijjjjkkkllllmmmmnnnnooooppppqqqqrrrrrsssssttttttuuuuuuvvvvvvvwwwwwwwwwxxxxxxxxxxxxxxxxxyyyyyyyyyyyyyyxxxxxxxxxxxxxxxxxwwwwwwwwwvvvvvvvuuuuuuttttttsssssrrrrrqqqqppppoooonnnnmmmmllllkkkjjjjiiihhhhgggfffeeeddddcccbbbaaa-..-
(PID.TID 0000.0001) //     90 -..-aaabbbcccddddeeefffgggghhhiiiijjjkkkklllmmmmnnnnooooppppqqqqqrrrrrssssstttttuuuuuuuvvvvvvvwwwwwwwwwwxxxxxxxxxxxxxxxxxxxxxxxxxxxxxxxxxxxxxxxxxxxxwwwwwwwwwwvvvvvvvuuuuuuutttttsssssrrrrrqqqqqppppoooonnnnmmmmlllkkkkjjjiiiihhhggggfffeeeddddcccbbbaaa-..-
(PID.TID 0000.0001) //     89 -..-aaabbbcccddddeeefffgggghhhiiiijjjkkkkllllmmmnnnnoooooppppqqqqrrrrrsssssttttttuuuuuuuvvvvvvvwwwwwwwwwwwxxxxxxxxxxxxxxxxxxxxxxxxxxxxxxxxxxxxxxxxwwwwwwwwwwwvvvvvvvuuuuuuuttttttsssssrrrrrqqqqppppooooonnnnmmmllllkkkkjjjiiiihhhggggfffeeeddddcccbbbaaa-..-
(PID.TID 0000.0001) //     88 -..-aaabbbccccdddeeeffffggghhhiiiijjjjkkkllllmmmmnnnnooooppppqqqqqrrrrrsssssttttttuuuuuuuvvvvvvvvwwwwwwwwwwxxxxxxxxxxxxxxxxxxxxxxxxxxxxxxxxxxxxxxwwwwwwwwwwvvvvvvvvuuuuuuuttttttsssssrrrrrqqqqqppppoooonnnnmmmmllllkkkjjjjiiiihhhgggffffeeedddccccbbbaaa-..-
(PID.TID 0000.0001) //     87 -..-aaabbbccccdddeeeffffggghhhhiiijjjjkkkllllmmmmnnnnoooopppppqqqqrrrrrssssssttttttuuuuuuuvvvvvvvvwwwwwwwwwwwwxxxxxxxxxxxxxxxxxxxxxxxxxxxxxxxxwwwwwwwwwwwwvvvvvvvvuuuuuuuttttttssssssrrrrrqqqqpppppoooonnnnmmmmllllkkkjjjjiiihhhhgggffffeeedddccccbbbaaa-..-
(PID.TID 0000.0001) //     86 -..-aaabbbccccdddeeeffffggghhhhiiijjjjkkkkllllmmmmnnnnooooppppqqqqqrrrrrssssssttttttuuuuuuuvvvvvvvvwwwwwwwwwwwwwxxxxxxxxxxxxxxxxxxxxxxxxxxxxwwwwwwwwwwwwwvvvvvvvvuuuuuuuttttttssssssrrrrrqqqqqppppoooonnnnmmmmllllkkkkjjjjiiihhhhgggffffeeedddccccbbbaaa-..-
(PID.TID 0000.0001) //     85 -..-aaabbbccccdddeeeefffggghhhhiiiijjjkkkkllllmmmmnnnnoooopppppqqqqqrrrrrssssstttttttuuuuuuuvvvvvvvvvwwwwwwwwwwwwwwwxxxxxxxxxxxxxxxxxxxxwwwwwwwwwwwwwwwvvvvvvvvvuuuuuuutttttttsssssrrrrrqqqqqpppppoooonnnnmmmmllllkkkkjjjiiiihhhhgggfffeeeedddccccbbbaaa-..-
(PID.TID 0000.0001) //     84 -..-aaabbbccccdddeeeefffgggghhhiiiijjjjkkkllllmmmmnnnnoooooppppqqqqqrrrrrsssssstttttttuuuuuuuvvvvvvvvvvwwwwwwwwwwwwwwwwwwwxxxxxxxxwwwwwwwwwwwwwwwwwwwvvvvvvvvvvuuuuuuutttttttssssssrrrrrqqqqqppppooooonnnnmmmmllllkkkjjjjiiiihhhggggfffeeeedddccccbbbaaa-..-
(PID.TID 0000.0001) //     83 -..-aaabbbccccdddeeeefffgggghhhiiiijjjjkkkkllllmmmmnnnnoooopppppqqqqqrrrrrsssssstttttttuuuuuuuvvvvvvvvvvvwwwwwwwwwwwwwwwwwwwwwwwwwwwwwwwwwwwwwwwwwwvvvvvvvvvvvuuuuuuutttttttssssssrrrrrqqqqqpppppoooonnnnmmmmllllkkkkjjjjiiiihhhggggfffeeeedddccccbbbaaa-..-
(PID.TID 0000.0001) //     82 -..-aaabbbbcccdddeeeefffgggghhhhiiijjjjkkkkllllmmmmnnnnooooopppppqqqqqrrrrrsssssstttttttuuuuuuuuvvvvvvvvvvvwwwwwwwwwwwwwwwwwwwwwwwwwwwwwwwwwwwwwwvvvvvvvvvvvuuuuuuuutttttttssssssrrrrrqqqqqpppppooooonnnnmmmmllllkkkkjjjjiiihhhhggggfffeeeedddcccbbbbaaa-..-
(PID.TID 0000.0001) //     81 -..-aaabbbbcccddddeeeffffggghhhhiiiijjjkkkkllllmmmmmnnnnoooopppppqqqqqrrrrrrsssssstttttttuuuuuuuuvvvvvvvvvvvvwwwwwwwwwwwwwwwwwwwwwwwwwwwwwwwwwwvvvvvvvvvvvvuuuuuuuutttttttssssssrrrrrrqqqqqpppppoooonnnnmmmmmllllkkkkjjjiiiihhhhgggffffeeeddddcccbbbbaaa-..-
(PID.TID 0000.0001) //     80 -..-aaabbbbcccddddeeeffffggghhhhiiiijjjjkkkkllllmmmmnnnnooooopppppqqqqqrrrrrrsssssstttttttuuuuuuuuuvvvvvvvvvvvvvvwwwwwwwwwwwwwwwwwwwwwwwwwwvvvvvvvvvvvvvvuuuuuuuuutttttttssssssrrrrrrqqqqqpppppooooonnnnmmmmllllkkkkjjjjiiiihhhhgggffffeeeddddcccbbbbaaa-..-
(PID.TID 0000.0001) //     79 -..-aaabbbbcccddddeeeffffgggghhhiiiijjjjkkkkllllmmmmnnnnnoooooppppqqqqqqrrrrrrsssssstttttttuuuuuuuuuuvvvvvvvvvvvvvvvvwwwwwwwwwwwwwwwwwwvvvvvvvvvvvvvvvvuuuuuuuuuutttttttssssssrrrrrrqqqqqqppppooooonnnnnmmmmllllkkkkjjjjiiiihhhggggffffeeeddddcccbbbbaaa-..-
(PID.TID 0000.0001) //     78 -..-aaabbbbcccddddeeeefffgggghhhhiiiijjjkkkklllllmmmmnnnnooooopppppqqqqqqrrrrrsssssssttttttttuuuuuuuuuuvvvvvvvvvvvvvvvvvvvvvvvvvvvvvvvvvvvvvvvvvvvvvvuuuuuuuuuuttttttttsssssssrrrrrqqqqqqpppppooooonnnnmmmmlllllkkkkjjjiiiihhhhggggfffeeeeddddcccbbbbaaa-..-
(PID.TID 0000.0001) //     77 -..-aaabbbbcccddddeeeefffgggghhhhiiiijjjjkkkkllllmmmmnnnnnooooopppppqqqqqrrrrrrsssssssttttttttuuuuuuuuuuuvvvvvvvvvvvvvvvvvvvvvvvvvvvvvvvvvvvvvvvvvvuuuuuuuuuuuttttttttsssssssrrrrrrqqqqqpppppooooonnnnnmmmmllllkkkkjjjjiiiihhhhggggfffeeeeddddcccbbbbaaa-..-
(PID.TID 0000.0001) //     76 -..-aaabbbbccccdddeeeeffffggghhhhiiiijjjjkkkklllllmmmmnnnnnooooopppppqqqqqrrrrrrrsssssssttttttttuuuuuuuuuuuuvvvvvvvvvvvvvvvvvvvvvvvvvvvvvvvvvvvvuuuuuuuuuuuuttttttttsssssssrrrrrrrqqqqqpppppooooonnnnnmmmmlllllkkkkjjjjiiiihhhhgggffffeeeedddccccbbbbaaa-..-
(PID.TID 0000.0001) //     75 -..-aaabbbbccccdddeeeeffffgggghhhhiiiijjjjkkkkllllmmmmmnnnnoooooppppppqqqqqrrrrrrrssssssstttttttttuuuuuuuuuuuuuuvvvvvvvvvvvvvvvvvvvvvvvvvvvvuuuuuuuuuuuuuutttttttttsssssssrrrrrrrqqqqqppppppooooonnnnmmmmmllllkkkkjjjjiiiihhhhggggffffeeeedddccccbbbbaaa-..-
(PID.TID 0000.0001) //     74 -..-aaaabbbccccddddeeeffffgggghhhhiiiijjjjkkkklllllmmmmnnnnnooooopppppqqqqqqrrrrrrrsssssssttttttttttuuuuuuuuuuuuuuuuvvvvvvvvvvvvvvvvvvvvuuuuuuuuuuuuuuuuttttttttttsssssssrrrrrrrqqqqqqpppppooooonnnnnmmmmlllllkkkkjjjjiiiihhhhggggffffeeeddddccccbbbaaaa-..-
(PID.TID 0000.0001) //     73 -..-aaaabbbccccddddeeeffffgggghhhhiiiijjjjkkkkkllllmmmmmnnnnnooooopppppqqqqqqrrrrrrrssssssssttttttttttuuuuuuuuuuuuuuuuuuuuuuuuuuuuuuuuuuuuuuuuuuuuuuuuttttttttttssssssssrrrrrrrqqqqqqpppppooooonnnnnmmmmmllllkkkkkjjjjiiiihhhhggggffffeeeddddccccbbbaaaa-..-
(PID.TID 0000.0001) //     72 -..-aaaabbbccccddddeeeeffffgggghhhhiiiijjjjkkkklllllmmmmnnnnnoooooopppppqqqqqqrrrrrrrssssssssstttttttttttuuuuuuuuuuuuuuuuuuuuuuuuuuuuuuuuuuuuuuuuuutttttttttttsssssssssrrrrrrrqqqqqqpppppoooooonnnnnmmmmlllllkkkkjjjjiiiihhhhggggffffeeeeddddccccbbbaaaa-..-
(PID.TID 0000.0001) //     71 -..-aaaabbbccccddddeeeeffffgggghhhhiiiijjjjkkkkkllllmmmmmnnnnnoooooppppppqqqqqqqrrrrrrrsssssssssttttttttttttuuuuuuuuuuuuuuuuuuuuuuuuuuuuuuuuuuuuttttttttttttsssssssssrrrrrrrqqqqqqqppppppooooonnnnnmmmmmllllkkkkkjjjjiiiihhhhggggffffeeeeddddccccbbbaaaa-..-
(PID.TID 0000.0001) //     70 -..-aaaabbbbcccddddeeeeffffgggghhhhiiiijjjjjkkkklllllmmmmmnnnnnoooooppppppqqqqqqqrrrrrrrssssssssssttttttttttttttuuuuuuuuuuuuuuuuuuuuuuuuuuuuttttttttttttttssssssssssrrrrrrrqqqqqqqppppppooooonnnnnmmmmmlllllkkkkjjjjjiiiihhhhggggffffeeeeddddcccbbbbaaaa-..-
(PID.TID 0000.0001) //     69 -..-aaaabbbbccccdddeeeeffffgggghhhhhiiiijjjjkkkkklllllmmmmnnnnnnoooooppppppqqqqqqqrrrrrrrrssssssssssttttttttttttttttttuuuuuuuuuuuuuuuuttttttttttttttttttssssssssssrrrrrrrrqqqqqqqppppppooooonnnnnnmmmmlllllkkkkkjjjjiiiihhhhhggggffffeeeedddccccbbbbaaaa-..-
(PID.TID 0000.0001) //     68 -..-aaaabbbbccccddddeeeeffffgggghhhhiiiijjjjjkkkklllllmmmmmnnnnnnooooopppppppqqqqqqqrrrrrrrrsssssssssssttttttttttttttttttttttttttttttttttttttttttttttsssssssssssrrrrrrrrqqqqqqqpppppppooooonnnnnnmmmmmlllllkkkkjjjjjiiiihhhhggggffffeeeeddddccccbbbbaaaa-..-
(PID.TID 0000.0001) //     67 -..-aaaabbbbccccddddeeeeffffgggghhhhiiiiijjjjkkkkklllllmmmmmnnnnnoooooopppppppqqqqqqqrrrrrrrrrssssssssssssttttttttttttttttttttttttttttttttttttttttssssssssssssrrrrrrrrrqqqqqqqpppppppoooooonnnnnmmmmmlllllkkkkkjjjjiiiiihhhhggggffffeeeeddddccccbbbbaaaa-..-
(PID.TID 0000.0001) //     66 -..-aaaabbbbccccddddeeeeffffggggghhhhiiiijjjjjkkkkklllllmmmmmnnnnnoooooopppppppqqqqqqqqrrrrrrrrrssssssssssssssttttttttttttttttttttttttttttttttssssssssssssssrrrrrrrrrqqqqqqqqpppppppoooooonnnnnmmmmmlllllkkkkkjjjjjiiiihhhhgggggffffeeeeddddccccbbbbaaaa-..-
(PID.TID 0000.0001) //     65 -..-aaaabbbbccccddddeeeefffffgggghhhhiiiiijjjjkkkkklllllmmmmmmnnnnnoooooooppppppqqqqqqqqrrrrrrrrrrsssssssssssssssssttttttttttttttttttttttsssssssssssssssssrrrrrrrrrrqqqqqqqqppppppooooooonnnnnmmmmmmlllllkkkkkjjjjiiiiihhhhggggfffffeeeeddddccccbbbbaaaa-..-
(PID.TID 0000.0001) //     64 -..-aaaabbbbccccddddeeeeeffffgggghhhhhiiiijjjjjkkkkklllllmmmmmmnnnnnooooooopppppppqqqqqqqqrrrrrrrrrrrssssssssssssssssssssssssssssssssssssssssssssssssssrrrrrrrrrrrqqqqqqqqpppppppooooooonnnnnmmmmmmlllllkkkkkjjjjjiiiihhhhhggggffffeeeeeddddccccbbbbaaaa-..-
(PID.TID 0000.0001) //     63 -..-aaaabbbbccccdddddeeeeffffggggghhhhiiiiijjjjjkkkkklllllmmmmmmnnnnnnooooooppppppppqqqqqqqqrrrrrrrrrrrrssssssssssssssssssssssssssssssssssssssssssssrrrrrrrrrrrrqqqqqqqqppppppppoooooonnnnnnmmmmmmlllllkkkkkjjjjjiiiiihhhhgggggffffeeeedddddccccbbbbaaaa-..-
(PID.TID 0000.0001) //     62 -..-aaaabbbbcccccddddeeeefffffgggghhhhhiiiijjjjjkkkkkllllllmmmmmmnnnnnnooooooopppppppqqqqqqqqqqrrrrrrrrrrrrrssssssssssssssssssssssssssssssssssssrrrrrrrrrrrrrqqqqqqqqqqpppppppooooooonnnnnnmmmmmmllllllkkkkkjjjjjiiiihhhhhggggfffffeeeeddddcccccbbbbaaaa-..-
(PID.TID 0000.0001) //     61 -..-aaaabbbbbccccddddeeeeeffffggggghhhhiiiiijjjjjkkkkkllllllmmmmmmnnnnnnoooooooppppppppqqqqqqqqqqrrrrrrrrrrrrrrrrrssssssssssssssssssssssssrrrrrrrrrrrrrrrrrqqqqqqqqqqppppppppooooooonnnnnnmmmmmmllllllkkkkkjjjjjiiiiihhhhgggggffffeeeeeddddccccbbbbbaaaa-..-
(PID.TID 0000.0001) //     60 -..-aaaabbbbbccccddddeeeeeffffggggghhhhhiiiiijjjjjkkkkkllllllmmmmmmnnnnnnooooooooppppppppqqqqqqqqqqqrrrrrrrrrrrrrrrrrrrrrrrrrrrrrrrrrrrrrrrrrrrrrrrrrrrrqqqqqqqqqqqppppppppoooooooonnnnnnmmmmmmllllllkkkkkjjjjjiiiiihhhhhgggggffffeeeeeddddccccbbbbbaaaa-..-
(PID.TID 0000.0001) //     59 -..-aaaaabbbbccccdddddeeeefffffggggghhhhiiiiijjjjjkkkkkkllllllmmmmmmnnnnnnnooooooopppppppppqqqqqqqqqqqqqrrrrrrrrrrrrrrrrrrrrrrrrrrrrrrrrrrrrrrrrrrrrqqqqqqqqqqqqqpppppppppooooooonnnnnnnmmmmmmllllllkkkkkkjjjjjiiiiihhhhgggggfffffeeeedddddccccbbbbaaaaa-..-
(PID.TID 0000.0001) //     58 -..-aaaaabbbbcccccddddeeeeeffffggggghhhhhiiiiijjjjjkkkkkkllllllmmmmmmnnnnnnnooooooooppppppppppqqqqqqqqqqqqqqrrrrrrrrrrrrrrrrrrrrrrrrrrrrrrrrrrrrqqqqqqqqqqqqqqppppppppppoooooooonnnnnnnmmmmmmllllllkkkkkkjjjjjiiiiihhhhhgggggffffeeeeeddddcccccbbbbaaaaa-..-
(PID.TID 0000.0001) //     57 -..-aaaaabbbbcccccddddeeeeefffffggggghhhhhiiiiijjjjjkkkkkkllllllmmmmmmnnnnnnnnoooooooopppppppppppqqqqqqqqqqqqqqqqqrrrrrrrrrrrrrrrrrrrrrrrrqqqqqqqqqqqqqqqqqpppppppppppoooooooonnnnnnnnmmmmmmllllllkkkkkkjjjjjiiiiihhhhhgggggfffffeeeeeddddcccccbbbbaaaaa-..-
(PID.TID 0000.0001) //     56 -..-aaaaabbbbcccccdddddeeeefffffggggghhhhhiiiiijjjjjjkkkkkkllllllmmmmmmmnnnnnnnoooooooooppppppppppppqqqqqqqqqqqqqqqqqqqqqqqqqqqqqqqqqqqqqqqqqqqqqqqqqqqqppppppppppppooooooooonnnnnnnmmmmmmmllllllkkkkkkjjjjjjiiiiihhhhhgggggfffffeeeedddddcccccbbbbaaaaa-..-
(PID.TID 0000.0001) //     55 -..-aaaaabbbbbccccdddddeeeeefffffggggghhhhhiiiiijjjjjjkkkkkkllllllmmmmmmmnnnnnnnnoooooooooopppppppppppppqqqqqqqqqqqqqqqqqqqqqqqqqqqqqqqqqqqqqqqqqqqqpppppppppppppoooooooooonnnnnnnnmmmmmmmllllllkkkkkkjjjjjjiiiiihhhhhgggggfffffeeeeedddddccccbbbbbaaaaa-..-
(PID.TID 0000.0001) //     54 -..-aaaaabbbbbccccdddddeeeeefffffggggghhhhhhiiiiijjjjjjkkkkkklllllllmmmmmmmnnnnnnnnoooooooooopppppppppppppppqqqqqqqqqqqqqqqqqqqqqqqqqqqqqqqqqqqqpppppppppppppppoooooooooonnnnnnnnmmmmmmmlllllllkkkkkkjjjjjjiiiiihhhhhhgggggfffffeeeeedddddccccbbbbbaaaaa-..-
(PID.TID 0000.0001) //     53 -..-aaaaabbbbbcccccdddddeeeeefffffggggghhhhhiiiiiijjjjjjkkkkkklllllllmmmmmmmmnnnnnnnnooooooooooopppppppppppppppppppqqqqqqqqqqqqqqqqqqqqqqpppppppppppppppppppooooooooooonnnnnnnnmmmmmmmmlllllllkkkkkkjjjjjjiiiiiihhhhhgggggfffffeeeeedddddcccccbbbbbaaaaa-..-
(PID.TID 0000.0001) //     52 -..-aaaaabbbbbcccccdddddeeeeefffffgggggghhhhhiiiiiijjjjjjkkkkkkllllllllmmmmmmmnnnnnnnnnnooooooooooooppppppppppppppppppppppppppppppppppppppppppppppppppppoooooooooooonnnnnnnnnnmmmmmmmllllllllkkkkkkjjjjjjiiiiiihhhhhggggggfffffeeeeedddddcccccbbbbbaaaaa-..-
(PID.TID 0000.0001) //     51 -..-aaaaabbbbbcccccdddddeeeeeefffffggggghhhhhhiiiiiijjjjjjkkkkkkklllllllmmmmmmmmnnnnnnnnnnooooooooooooooppppppppppppppppppppppppppppppppppppppppppppoooooooooooooonnnnnnnnnnmmmmmmmmlllllllkkkkkkkjjjjjjiiiiiihhhhhhgggggfffffeeeeeedddddcccccbbbbbaaaaa-..-
(PID.TID 0000.0001) //     50 -..--aaaaabbbbbcccccdddddeeeeefffffgggggghhhhhhiiiiiijjjjjjkkkkkkkllllllllmmmmmmmmmnnnnnnnnnnoooooooooooooooooppppppppppppppppppppppppppppppppooooooooooooooooonnnnnnnnnnmmmmmmmmmllllllllkkkkkkkjjjjjjiiiiiihhhhhhggggggfffffeeeeedddddcccccbbbbbaaaaa--..-
(PID.TID 0000.0001) //     49 -..--aaaaabbbbbcccccdddddeeeeeefffffgggggghhhhhhiiiiiijjjjjjkkkkkkkkllllllllmmmmmmmmmnnnnnnnnnnnnooooooooooooooooooooooppppppppppppppoooooooooooooooooooooonnnnnnnnnnnnmmmmmmmmmllllllllkkkkkkkkjjjjjjiiiiiihhhhhhggggggfffffeeeeeedddddcccccbbbbbaaaaa--..-
(PID.TID 0000.0001) //     48 -..--aaaaabbbbbcccccddddddeeeeeffffffgggggghhhhhhiiiiiijjjjjjjkkkkkkklllllllllmmmmmmmmmmnnnnnnnnnnnnnoooooooooooooooooooooooooooooooooooooooooooooooooonnnnnnnnnnnnnmmmmmmmmmmlllllllllkkkkkkkjjjjjjjiiiiiihhhhhhggggggffffffeeeeeddddddcccccbbbbbaaaaa--..-
(PID.TID 0000.0001) //     47 -..--aaaaabbbbbccccccdddddeeeeeefffffgggggghhhhhhhiiiiiijjjjjjjkkkkkkkklllllllllmmmmmmmmmmnnnnnnnnnnnnnnnnoooooooooooooooooooooooooooooooooooooooonnnnnnnnnnnnnnnnmmmmmmmmmmlllllllllkkkkkkkkjjjjjjjiiiiiihhhhhhhggggggfffffeeeeeedddddccccccbbbbbaaaaa--..-
(PID.TID 0000.0001) //     46 -..--aaaaabbbbbbcccccddddddeeeeeffffffgggggghhhhhhhiiiiiijjjjjjjjkkkkkkkklllllllllmmmmmmmmmmmmnnnnnnnnnnnnnnnnnnnoooooooooooooooooooooooooonnnnnnnnnnnnnnnnnnnmmmmmmmmmmmmlllllllllkkkkkkkkjjjjjjjjiiiiiihhhhhhhggggggffffffeeeeeddddddcccccbbbbbbaaaaa--..-
(PID.TID 0000.0001) //     45 -..--aaaaabbbbbbcccccddddddeeeeeeffffffgggggghhhhhhhiiiiiiijjjjjjjkkkkkkkkkllllllllllmmmmmmmmmmmmmnnnnnnnnnnnnnnnnnnnnnnnnnnnnnnnnnnnnnnnnnnnnnnnnnnnnnnnnmmmmmmmmmmmmmllllllllllkkkkkkkkkjjjjjjjiiiiiiihhhhhhhggggggffffffeeeeeeddddddcccccbbbbbbaaaaa--..-
(PID.TID 0000.0001) //     44 -..--aaaaabbbbbbccccccddddddeeeeeeffffffgggggghhhhhhhiiiiiiijjjjjjjjkkkkkkkkklllllllllllmmmmmmmmmmmmmmnnnnnnnnnnnnnnnnnnnnnnnnnnnnnnnnnnnnnnnnnnnnnnnnmmmmmmmmmmmmmmlllllllllllkkkkkkkkkjjjjjjjjiiiiiiihhhhhhhggggggffffffeeeeeeddddddccccccbbbbbbaaaaa--..-
(PID.TID 0000.0001) //     43 -..--aaaaaabbbbbccccccddddddeeeeeefffffffgggggghhhhhhhiiiiiiiijjjjjjjjkkkkkkkkkllllllllllllmmmmmmmmmmmmmmmmmnnnnnnnnnnnnnnnnnnnnnnnnnnnnnnnnnnnnmmmmmmmmmmmmmmmmmllllllllllllkkkkkkkkkjjjjjjjjiiiiiiiihhhhhhhggggggfffffffeeeeeeddddddccccccbbbbbaaaaaa--..-
(PID.TID 0000.0001) //     42 -..--aaaaaabbbbbbccccccddddddeeeeeefffffffgggggghhhhhhhhiiiiiiijjjjjjjjjkkkkkkkkkklllllllllllllmmmmmmmmmmmmmmmmmmmmmmmmmnnnnnnnnnnnnmmmmmmmmmmmmmmmmmmmmmmmmmlllllllllllllkkkkkkkkkkjjjjjjjjjiiiiiiihhhhhhhhggggggfffffffeeeeeeddddddccccccbbbbbbaaaaaa--..-
(PID.TID 0000.0001) //     41 -..--aaaaaabbbbbbccccccddddddeeeeeeefffffffggggggghhhhhhhiiiiiiiijjjjjjjjjkkkkkkkkkkkllllllllllllllmmmmmmmmmmmmmmmmmmmmmmmmmmmmmmmmmmmmmmmmmmmmmmmmmmmmmmllllllllllllllkkkkkkkkkkkjjjjjjjjjiiiiiiiihhhhhhhgggggggfffffffeeeeeeeddddddccccccbbbbbbaaaaaa--..-
(PID.TID 0000.0001) //     40 -..--aaaaaabbbbbbcccccccddddddeeeeeeefffffffggggggghhhhhhhhiiiiiiiijjjjjjjjjjkkkkkkkkkkklllllllllllllllllmmmmmmmmmmmmmmmmmmmmmmmmmmmmmmmmmmmmmmmmmmlllllllllllllllllkkkkkkkkkkkjjjjjjjjjjiiiiiiiihhhhhhhhgggggggfffffffeeeeeeeddddddcccccccbbbbbbaaaaaa--..-
(PID.TID 0000.0001) //     39 -..--aaaaaabbbbbbbccccccdddddddeeeeeeefffffffggggggghhhhhhhhiiiiiiiiijjjjjjjjjjkkkkkkkkkkkkkllllllllllllllllllllllmmmmmmmmmmmmmmmmmmmmmmmmllllllllllllllllllllllkkkkkkkkkkkkkjjjjjjjjjjiiiiiiiiihhhhhhhhgggggggfffffffeeeeeeedddddddccccccbbbbbbbaaaaaa--..-
(PID.TID 0000.0001) //     38 -..--aaaaaaabbbbbbcccccccddddddeeeeeeeffffffffgggggggghhhhhhhhiiiiiiiiijjjjjjjjjjjkkkkkkkkkkkkkkkllllllllllllllllllllllllllllllllllllllllllllllllllllllllllkkkkkkkkkkkkkkkjjjjjjjjjjjiiiiiiiiihhhhhhhhggggggggffffffffeeeeeeeddddddcccccccbbbbbbaaaaaaa--..-
(PID.TID 0000.0001) //     37 -..--aaaaaaabbbbbbbccccccdddddddeeeeeeeffffffffgggggggghhhhhhhhhiiiiiiiiiijjjjjjjjjjjjkkkkkkkkkkkkkkkkllllllllllllllllllllllllllllllllllllllllllllllllkkkkkkkkkkkkkkkkjjjjjjjjjjjjiiiiiiiiiihhhhhhhhhggggggggffffffffeeeeeeedddddddccccccbbbbbbbaaaaaaa--..-
(PID.TID 0000.0001) //     36 -..--aaaaaaabbbbbbbcccccccdddddddeeeeeeeefffffffggggggggghhhhhhhhhiiiiiiiiiiijjjjjjjjjjjjjkkkkkkkkkkkkkkkkkkkkllllllllllllllllllllllllllllllllkkkkkkkkkkkkkkkkkkkkjjjjjjjjjjjjjiiiiiiiiiiihhhhhhhhhgggggggggfffffffeeeeeeeedddddddcccccccbbbbbbbaaaaaaa--..-
(PID.TID 0000.0001) //     35 -..---aaaaaabbbbbbbccccccccdddddddeeeeeeeeffffffffggggggggghhhhhhhhhiiiiiiiiiiiijjjjjjjjjjjjjjkkkkkkkkkkkkkkkkkkkkkkkkkkkkkkkkkkkkkkkkkkkkkkkkkkkkkkkkkkkkkkkkjjjjjjjjjjjjjjiiiiiiiiiiiihhhhhhhhhgggggggggffffffffeeeeeeeedddddddccccccccbbbbbbbaaaaaa---..-
(PID.TID 0000.0001) //     34 -..---aaaaaaabbbbbbbcccccccddddddddeeeeeeeeffffffffgggggggggghhhhhhhhhhiiiiiiiiiiiijjjjjjjjjjjjjjjjjkkkkkkkkkkkkkkkkkkkkkkkkkkkkkkkkkkkkkkkkkkkkkkkkkkkkjjjjjjjjjjjjjjjjjiiiiiiiiiiiihhhhhhhhhhggggggggggffffffffeeeeeeeeddddddddcccccccbbbbbbbaaaaaaa---..-
(PID.TID 0000.0001) //     33 -..---aaaaaaabbbbbbbccccccccddddddddeeeeeeeefffffffffgggggggggghhhhhhhhhhhiiiiiiiiiiiiijjjjjjjjjjjjjjjjjjjjkkkkkkkkkkkkkkkkkkkkkkkkkkkkkkkkkkkkkkjjjjjjjjjjjjjjjjjjjjiiiiiiiiiiiiihhhhhhhhhhhggggggggggfffffffffeeeeeeeeddddddddccccccccbbbbbbbaaaaaaa---..-
(PID.TID 0000.0001) //     32 -..---aaaaaaabbbbbbbbccccccccddddddddeeeeeeeeefffffffffgggggggggghhhhhhhhhhhhiiiiiiiiiiiiiiijjjjjjjjjjjjjjjjjjjjjjjjjjjjjjjjjjjjjjjjjjjjjjjjjjjjjjjjjjjjjjjjjjjjiiiiiiiiiiiiiiihhhhhhhhhhhhggggggggggfffffffffeeeeeeeeeddddddddccccccccbbbbbbbbaaaaaaa---..-
(PID.TID 0000.0001) //     31 -..---aaaaaaaabbbbbbbbccccccccddddddddeeeeeeeeeffffffffffggggggggggghhhhhhhhhhhhiiiiiiiiiiiiiiiiijjjjjjjjjjjjjjjjjjjjjjjjjjjjjjjjjjjjjjjjjjjjjjjjjjjjjjjjjjiiiiiiiiiiiiiiiiihhhhhhhhhhhhgggggggggggffffffffffeeeeeeeeeddddddddccccccccbbbbbbbbaaaaaaaa---..-
(PID.TID 0000.0001) //     30 -..---aaaaaaaabbbbbbbbcccccccccddddddddeeeeeeeeeeffffffffffggggggggggghhhhhhhhhhhhhhiiiiiiiiiiiiiiiiiiiiijjjjjjjjjjjjjjjjjjjjjjjjjjjjjjjjjjjjjjjjjjiiiiiiiiiiiiiiiiiiiiihhhhhhhhhhhhhhgggggggggggffffffffffeeeeeeeeeeddddddddcccccccccbbbbbbbbaaaaaaaa---..-
(PID.TID 0000.0001) //     29 -..---aaaaaaaaabbbbbbbbcccccccccdddddddddeeeeeeeeeeffffffffffggggggggggggghhhhhhhhhhhhhhhiiiiiiiiiiiiiiiiiiiiiiiiiiiiiiijjjjjjjjjjjjiiiiiiiiiiiiiiiiiiiiiiiiiiiiiiihhhhhhhhhhhhhhhgggggggggggggffffffffffeeeeeeeeeedddddddddcccccccccbbbbbbbbaaaaaaaaa---..-
(PID.TID 0000.0001) //     28 -..---aaaaaaaaabbbbbbbbbcccccccccdddddddddeeeeeeeeeeefffffffffffggggggggggggghhhhhhhhhhhhhhhhhhiiiiiiiiiiiiiiiiiiiiiiiiiiiiiiiiiiiiiiiiiiiiiiiiiiiiiiiiiiiiiihhhhhhhhhhhhhhhhhhgggggggggggggfffffffffffeeeeeeeeeeedddddddddcccccccccbbbbbbbbbaaaaaaaaa---..-
(PID.TID 0000.0001) //     27 -..----aaaaaaaabbbbbbbbbbcccccccccddddddddddeeeeeeeeeeeffffffffffffgggggggggggggghhhhhhhhhhhhhhhhhhhhhhiiiiiiiiiiiiiiiiiiiiiiiiiiiiiiiiiiiiiiiiiiiiiihhhhhhhhhhhhhhhhhhhhhhggggggggggggggffffffffffffeeeeeeeeeeeddddddddddcccccccccbbbbbbbbbbaaaaaaaa----..-
[...]
 cg2d: Sum(rhs),rhsMax =  -1.98566010174359E-07  8.41273415915897E-03
 cg2d: Sum(rhs),rhsMax =  -1.95486677449785E-07  8.42058934564908E-03
 cg2d: Sum(rhs),rhsMax =  -1.92521261750331E-07  8.42837697797565E-03
 cg2d: Sum(rhs),rhsMax =  -1.89691517400031E-07  8.43609699535730E-03
 cg2d: Sum(rhs),rhsMax =  -1.86989546470048E-07  8.44374931680892E-03
 cg2d: Sum(rhs),rhsMax =  -1.84404240929220E-07  8.45133387063273E-03
(PID.TID 0000.0001)      cg2d_init_res =   3.29024177533176E-02
(PID.TID 0000.0001)      cg2d_iters(min,last) =      -1     565
(PID.TID 0000.0001)      cg2d_last_res =   9.35628907136947E-08
(PID.TID 0000.0001) // =======================================================
(PID.TID 0000.0001) // Begin MONITOR dynamic field statistics
(PID.TID 0000.0001) // =======================================================
(PID.TID 0000.0001) %MON time_tsnumber                =                   464
(PID.TID 0000.0001) %MON time_secondsf                =   2.5056000000000E+06
(PID.TID 0000.0001) %MON dynstat_eta_max              =   3.4782143538652E-02
(PID.TID 0000.0001) %MON dynstat_eta_min              =  -1.1193651525794E-02
(PID.TID 0000.0001) %MON dynstat_eta_mean             =   1.4829363086593E-10
(PID.TID 0000.0001) %MON dynstat_eta_sd               =   9.3246485168270E-03
(PID.TID 0000.0001) %MON dynstat_eta_del2             =   1.8926905074557E-07
(PID.TID 0000.0001) %MON dynstat_uvel_max             =   3.5206511875265E-02
(PID.TID 0000.0001) %MON dynstat_uvel_min             =  -1.4045929357539E-02
(PID.TID 0000.0001) %MON dynstat_uvel_mean            =  -9.2839804176928E-08
(PID.TID 0000.0001) %MON dynstat_uvel_sd              =   6.3387489911500E-03
(PID.TID 0000.0001) %MON dynstat_uvel_del2            =   3.0651275027389E-07
(PID.TID 0000.0001) %MON dynstat_vvel_max             =   6.2605857330619E-02
(PID.TID 0000.0001) %MON dynstat_vvel_min             =  -8.4442906932026E-03
(PID.TID 0000.0001) %MON dynstat_vvel_mean            =  -1.7112429503401E-09
(PID.TID 0000.0001) %MON dynstat_vvel_sd              =   8.1127142056071E-03
(PID.TID 0000.0001) %MON dynstat_vvel_del2            =   1.0934082519599E-06
(PID.TID 0000.0001) %MON dynstat_wvel_max             =   1.6439555699471E-08
(PID.TID 0000.0001) %MON dynstat_wvel_min             =  -1.5779926179675E-08
(PID.TID 0000.0001) %MON dynstat_wvel_mean            =   3.0125893200218E-21
(PID.TID 0000.0001) %MON dynstat_wvel_sd              =   4.8951956973173E-09
(PID.TID 0000.0001) %MON dynstat_wvel_del2            =   8.0141446790503E-14
(PID.TID 0000.0001) %MON dynstat_theta_max            =   2.0000000000000E+01
(PID.TID 0000.0001) %MON dynstat_theta_min            =   2.0000000000000E+01
(PID.TID 0000.0001) %MON dynstat_theta_mean           =   1.9999999999999E+01
(PID.TID 0000.0001) %MON dynstat_theta_sd             =   1.1972645097557E-12
(PID.TID 0000.0001) %MON dynstat_theta_del2           =   0.0000000000000E+00
(PID.TID 0000.0001) %MON dynstat_salt_max             =   3.0000000000000E+01
(PID.TID 0000.0001) %MON dynstat_salt_min             =   3.0000000000000E+01
(PID.TID 0000.0001) %MON dynstat_salt_mean            =   2.9999999999998E+01
(PID.TID 0000.0001) %MON dynstat_salt_sd              =   2.1529444893531E-12
(PID.TID 0000.0001) %MON dynstat_salt_del2            =   0.0000000000000E+00
(PID.TID 0000.0001) %MON trAdv_CFL_u_max              =   3.7941692417128E-02
(PID.TID 0000.0001) %MON trAdv_CFL_v_max              =   6.7541698345475E-02
(PID.TID 0000.0001) %MON trAdv_CFL_w_max              =   1.9039769946967E-08
(PID.TID 0000.0001) %MON advcfl_uvel_max              =   3.8023032825286E-02
(PID.TID 0000.0001) %MON advcfl_vvel_max              =   6.7614325917068E-02
(PID.TID 0000.0001) %MON advcfl_wvel_max              =   3.5509440310858E-08
(PID.TID 0000.0001) %MON advcfl_W_hf_max              =   0.0000000000000E+00
(PID.TID 0000.0001) %MON pe_b_mean                    =   8.8960807801555E-08
(PID.TID 0000.0001) %MON ke_max                       =   1.9594427281120E-03
(PID.TID 0000.0001) %MON ke_mean                      =   5.2759371405481E-05
(PID.TID 0000.0001) %MON ke_vol                       =   7.2529629296391E+15
(PID.TID 0000.0001) %MON vort_r_min                   =  -9.1350203830475E-07
(PID.TID 0000.0001) %MON vort_r_max                   =   3.3461501080443E-06
(PID.TID 0000.0001) %MON vort_a_mean                  =   8.2300000000001E-05
(PID.TID 0000.0001) %MON vort_a_sd                    =   7.1338648236898E-06
(PID.TID 0000.0001) %MON vort_p_mean                  =   8.6919888360247E-05
(PID.TID 0000.0001) %MON vort_p_sd                    =   1.7899410540321E-05
(PID.TID 0000.0001) %MON surfExpan_theta_mean         =   6.0389984144825E-20
(PID.TID 0000.0001) %MON surfExpan_salt_mean          =   9.0579112712002E-20
(PID.TID 0000.0001) // =======================================================
(PID.TID 0000.0001) // End MONITOR dynamic field statistics
(PID.TID 0000.0001) // =======================================================
 cg2d: Sum(rhs),rhsMax =  -1.81923368995987E-07  8.45885058165901E-03
 cg2d: Sum(rhs),rhsMax =  -1.79536021823606E-07  8.46644075539454E-03
 cg2d: Sum(rhs),rhsMax =  -1.77229584508165E-07  8.47429203863019E-03
 cg2d: Sum(rhs),rhsMax =  -1.74999496000208E-07  8.48207699876675E-03
 cg2d: Sum(rhs),rhsMax =  -1.72839886476012E-07  8.48979555902451E-03
 cg2d: Sum(rhs),rhsMax =  -1.70746673676739E-07  8.49744765005933E-03
 cg2d: Sum(rhs),rhsMax =  -1.68710603442451E-07  8.50503319725596E-03
 cg2d: Sum(rhs),rhsMax =  -1.66729085596812E-07  8.51255213314696E-03
 cg2d: Sum(rhs),rhsMax =  -1.64797897042254E-07  8.52000438555448E-03
 cg2d: Sum(rhs),rhsMax =  -1.62911845692434E-07  8.52738988900573E-03
 cg2d: Sum(rhs),rhsMax =  -1.61064641505948E-07  8.53470857397997E-03
 cg2d: Sum(rhs),rhsMax =  -1.59258093046510E-07  8.54196037713757E-03
 cg2d: Sum(rhs),rhsMax =  -1.57490389673942E-07  8.54914523182039E-03
 cg2d: Sum(rhs),rhsMax =  -1.55756507604771E-07  8.55626307697446E-03
 cg2d: Sum(rhs),rhsMax =  -1.54052340183009E-07  8.56331384899457E-03
 cg2d: Sum(rhs),rhsMax =  -1.52376040027033E-07  8.57036844773059E-03
(PID.TID 0000.0001)      cg2d_init_res =   3.20873736486069E-02
(PID.TID 0000.0001)      cg2d_iters(min,last) =      -1     565
(PID.TID 0000.0001)      cg2d_last_res =   9.50539591675747E-08
(PID.TID 0000.0001) // =======================================================
(PID.TID 0000.0001) // Begin MONITOR dynamic field statistics
(PID.TID 0000.0001) // =======================================================
(PID.TID 0000.0001) %MON time_tsnumber                =                   480
(PID.TID 0000.0001) %MON time_secondsf                =   2.5920000000000E+06
(PID.TID 0000.0001) %MON dynstat_eta_max              =   3.5077437144853E-02
(PID.TID 0000.0001) %MON dynstat_eta_min              =  -1.1197501395757E-02
(PID.TID 0000.0001) %MON dynstat_eta_mean             =   1.2458768332035E-10
(PID.TID 0000.0001) %MON dynstat_eta_sd               =   9.3437060139204E-03
(PID.TID 0000.0001) %MON dynstat_eta_del2             =   1.9204922649984E-07
(PID.TID 0000.0001) %MON dynstat_uvel_max             =   3.6299099930271E-02
(PID.TID 0000.0001) %MON dynstat_uvel_min             =  -1.4432258219409E-02
(PID.TID 0000.0001) %MON dynstat_uvel_mean            =  -8.0390394946173E-08
(PID.TID 0000.0001) %MON dynstat_uvel_sd              =   6.4108233001014E-03
(PID.TID 0000.0001) %MON dynstat_uvel_del2            =   3.1112557566825E-07
(PID.TID 0000.0001) %MON dynstat_vvel_max             =   6.3621047537566E-02
(PID.TID 0000.0001) %MON dynstat_vvel_min             =  -8.4752452536399E-03
(PID.TID 0000.0001) %MON dynstat_vvel_mean            =   1.4272835439049E-08
(PID.TID 0000.0001) %MON dynstat_vvel_sd              =   8.1509178584648E-03
(PID.TID 0000.0001) %MON dynstat_vvel_del2            =   1.1045227120955E-06
(PID.TID 0000.0001) %MON dynstat_wvel_max             =   1.5790791899199E-08
(PID.TID 0000.0001) %MON dynstat_wvel_min             =  -1.5167284081690E-08
(PID.TID 0000.0001) %MON dynstat_wvel_mean            =   3.9502565861709E-22
(PID.TID 0000.0001) %MON dynstat_wvel_sd              =   4.7707127905505E-09
(PID.TID 0000.0001) %MON dynstat_wvel_del2            =   7.9421007582820E-14
(PID.TID 0000.0001) %MON dynstat_theta_max            =   2.0000000000000E+01
(PID.TID 0000.0001) %MON dynstat_theta_min            =   2.0000000000000E+01
(PID.TID 0000.0001) %MON dynstat_theta_mean           =   1.9999999999999E+01
(PID.TID 0000.0001) %MON dynstat_theta_sd             =   1.1972645097557E-12
(PID.TID 0000.0001) %MON dynstat_theta_del2           =   0.0000000000000E+00
(PID.TID 0000.0001) %MON dynstat_salt_max             =   3.0000000000000E+01
(PID.TID 0000.0001) %MON dynstat_salt_min             =   3.0000000000000E+01
(PID.TID 0000.0001) %MON dynstat_salt_mean            =   2.9999999999998E+01
(PID.TID 0000.0001) %MON dynstat_salt_sd              =   2.1529444893531E-12
(PID.TID 0000.0001) %MON dynstat_salt_del2            =   0.0000000000000E+00
(PID.TID 0000.0001) %MON trAdv_CFL_u_max              =   3.9122136591761E-02
(PID.TID 0000.0001) %MON trAdv_CFL_v_max              =   6.8645029862379E-02
(PID.TID 0000.0001) %MON trAdv_CFL_w_max              =   1.8302159453263E-08
(PID.TID 0000.0001) %MON advcfl_uvel_max              =   3.9203027924693E-02
(PID.TID 0000.0001) %MON advcfl_vvel_max              =   6.8710731340571E-02
(PID.TID 0000.0001) %MON advcfl_wvel_max              =   3.4108110502269E-08
(PID.TID 0000.0001) %MON advcfl_W_hf_max              =   0.0000000000000E+00
(PID.TID 0000.0001) %MON pe_b_mean                    =   8.9324811401697E-08
(PID.TID 0000.0001) %MON ke_max                       =   2.0232451196590E-03
(PID.TID 0000.0001) %MON ke_mean                      =   5.3526028169025E-05
(PID.TID 0000.0001) %MON ke_vol                       =   7.2529629296391E+15
(PID.TID 0000.0001) %MON vort_r_min                   =  -9.4748939881494E-07
(PID.TID 0000.0001) %MON vort_r_max                   =   3.3922066623565E-06
(PID.TID 0000.0001) %MON vort_a_mean                  =   8.2300000000000E-05
(PID.TID 0000.0001) %MON vort_a_sd                    =   7.1339731964337E-06
(PID.TID 0000.0001) %MON vort_p_mean                  =   8.6919888360246E-05
(PID.TID 0000.0001) %MON vort_p_sd                    =   1.7900069188766E-05
(PID.TID 0000.0001) %MON surfExpan_theta_mean         =   7.9162064496170E-21
(PID.TID 0000.0001) %MON surfExpan_salt_mean          =   1.1874271221331E-20
(PID.TID 0000.0001) // =======================================================
(PID.TID 0000.0001) // End MONITOR dynamic field statistics
(PID.TID 0000.0001) // =======================================================
(PID.TID 0000.0001) %CHECKPOINT       480 ckptA
(PID.TID 0000.0001)   Seconds in section "ALL                    [THE_MODEL_MAIN]":
(PID.TID 0000.0001)           User time:   351.439147867262
(PID.TID 0000.0001)         System time:  0.000000000000000E+000
(PID.TID 0000.0001)     Wall clock time:   355.217180013657
(PID.TID 0000.0001)          No. starts:           1
(PID.TID 0000.0001)           No. stops:           1
(PID.TID 0000.0001)   Seconds in section "INITIALISE_FIXED       [THE_MODEL_MAIN]":
(PID.TID 0000.0001)           User time:  0.108716996386647
(PID.TID 0000.0001)         System time:  0.000000000000000E+000
(PID.TID 0000.0001)     Wall clock time:  0.338835954666138
(PID.TID 0000.0001)          No. starts:           1
(PID.TID 0000.0001)           No. stops:           1
(PID.TID 0000.0001)   Seconds in section "THE_MAIN_LOOP          [THE_MODEL_MAIN]":
(PID.TID 0000.0001)           User time:   351.330393865705
(PID.TID 0000.0001)         System time:  0.000000000000000E+000
(PID.TID 0000.0001)     Wall clock time:   354.878284931183
(PID.TID 0000.0001)          No. starts:           1
(PID.TID 0000.0001)           No. stops:           1
(PID.TID 0000.0001)   Seconds in section "INITIALISE_VARIA    [THE_MAIN_LOOP]":
(PID.TID 0000.0001)           User time:  1.503901183605194E-002
(PID.TID 0000.0001)         System time:  0.000000000000000E+000
(PID.TID 0000.0001)     Wall clock time:  0.103106021881104
(PID.TID 0000.0001)          No. starts:           1
(PID.TID 0000.0001)           No. stops:           1
(PID.TID 0000.0001)   Seconds in section "MAIN LOOP           [THE_MAIN_LOOP]":
(PID.TID 0000.0001)           User time:   351.315318867564
(PID.TID 0000.0001)         System time:  0.000000000000000E+000
(PID.TID 0000.0001)     Wall clock time:   354.775109052658
(PID.TID 0000.0001)          No. starts:           1
(PID.TID 0000.0001)           No. stops:           1
(PID.TID 0000.0001)   Seconds in section "MAIN_DO_LOOP        [THE_MAIN_LOOP]":
(PID.TID 0000.0001)           User time:   351.310594156384
(PID.TID 0000.0001)         System time:  0.000000000000000E+000
(PID.TID 0000.0001)     Wall clock time:   354.770213127136
(PID.TID 0000.0001)          No. starts:         480
(PID.TID 0000.0001)           No. stops:         480
(PID.TID 0000.0001)   Seconds in section "FORWARD_STEP        [MAIN_DO_LOOP]":
(PID.TID 0000.0001)           User time:   351.300230547786
(PID.TID 0000.0001)         System time:  0.000000000000000E+000
(PID.TID 0000.0001)     Wall clock time:   354.759979486465
(PID.TID 0000.0001)          No. starts:         480
(PID.TID 0000.0001)           No. stops:         480
(PID.TID 0000.0001)   Seconds in section "LOAD_FIELDS_DRIVER  [FORWARD_STEP]":
(PID.TID 0000.0001)           User time:  1.474411785602570E-002
(PID.TID 0000.0001)         System time:  0.000000000000000E+000
(PID.TID 0000.0001)     Wall clock time:  1.521062850952148E-002
(PID.TID 0000.0001)          No. starts:         480
(PID.TID 0000.0001)           No. stops:         480
(PID.TID 0000.0001)   Seconds in section "EXTERNAL_FLDS_LOAD [LOAD_FLDS_DRIVER]":
(PID.TID 0000.0001)           User time:  5.324333906173706E-003
(PID.TID 0000.0001)         System time:  0.000000000000000E+000
(PID.TID 0000.0001)     Wall clock time:  5.078315734863281E-003
(PID.TID 0000.0001)          No. starts:         480
(PID.TID 0000.0001)           No. stops:         480
(PID.TID 0000.0001)   Seconds in section "DO_ATMOSPHERIC_PHYS [FORWARD_STEP]":
(PID.TID 0000.0001)           User time:  5.141109228134155E-003
(PID.TID 0000.0001)         System time:  0.000000000000000E+000
(PID.TID 0000.0001)     Wall clock time:  5.075693130493164E-003
(PID.TID 0000.0001)          No. starts:         480
(PID.TID 0000.0001)           No. stops:         480
(PID.TID 0000.0001)   Seconds in section "DO_OCEANIC_PHYS     [FORWARD_STEP]":
(PID.TID 0000.0001)           User time:   1.00769019126892
(PID.TID 0000.0001)         System time:  0.000000000000000E+000
(PID.TID 0000.0001)     Wall clock time:   1.03325414657593
(PID.TID 0000.0001)          No. starts:         480
(PID.TID 0000.0001)           No. stops:         480
(PID.TID 0000.0001)   Seconds in section "THERMODYNAMICS      [FORWARD_STEP]":
(PID.TID 0000.0001)           User time:  0.510678470134735
(PID.TID 0000.0001)         System time:  0.000000000000000E+000
(PID.TID 0000.0001)     Wall clock time:  0.525234699249268
(PID.TID 0000.0001)          No. starts:         480
(PID.TID 0000.0001)           No. stops:         480
(PID.TID 0000.0001)   Seconds in section "DYNAMICS            [FORWARD_STEP]":
(PID.TID 0000.0001)           User time:   11.8893015235662
(PID.TID 0000.0001)         System time:  0.000000000000000E+000
(PID.TID 0000.0001)     Wall clock time:   12.0011408329010
(PID.TID 0000.0001)          No. starts:         480
(PID.TID 0000.0001)           No. stops:         480
(PID.TID 0000.0001)   Seconds in section "SOLVE_FOR_PRESSURE  [FORWARD_STEP]":
(PID.TID 0000.0001)           User time:   335.883516103029
(PID.TID 0000.0001)         System time:  0.000000000000000E+000
(PID.TID 0000.0001)     Wall clock time:   336.224973201752
(PID.TID 0000.0001)          No. starts:         480
(PID.TID 0000.0001)           No. stops:         480
(PID.TID 0000.0001)   Seconds in section "MOM_CORRECTION_STEP [FORWARD_STEP]":
(PID.TID 0000.0001)           User time:  0.818294048309326
(PID.TID 0000.0001)         System time:  0.000000000000000E+000
(PID.TID 0000.0001)     Wall clock time:  0.834403038024902
(PID.TID 0000.0001)          No. starts:         480
(PID.TID 0000.0001)           No. stops:         480
(PID.TID 0000.0001)   Seconds in section "INTEGR_CONTINUITY   [FORWARD_STEP]":
(PID.TID 0000.0001)           User time:  0.514401763677597
(PID.TID 0000.0001)         System time:  0.000000000000000E+000
(PID.TID 0000.0001)     Wall clock time:  0.526153564453125
(PID.TID 0000.0001)          No. starts:         480
(PID.TID 0000.0001)           No. stops:         480
(PID.TID 0000.0001)   Seconds in section "TRC_CORRECTION_STEP [FORWARD_STEP]":
(PID.TID 0000.0001)           User time:  4.800021648406982E-003
(PID.TID 0000.0001)         System time:  0.000000000000000E+000
(PID.TID 0000.0001)     Wall clock time:  5.071163177490234E-003
(PID.TID 0000.0001)          No. starts:         480
(PID.TID 0000.0001)           No. stops:         480
(PID.TID 0000.0001)   Seconds in section "BLOCKING_EXCHANGES  [FORWARD_STEP]":
(PID.TID 0000.0001)           User time:  5.634051561355591E-002
(PID.TID 0000.0001)         System time:  0.000000000000000E+000
(PID.TID 0000.0001)     Wall clock time:  5.822181701660156E-002
(PID.TID 0000.0001)          No. starts:         480
(PID.TID 0000.0001)           No. stops:         480
(PID.TID 0000.0001)   Seconds in section "MONITOR             [FORWARD_STEP]":
(PID.TID 0000.0001)           User time:  0.333440780639648
(PID.TID 0000.0001)         System time:  0.000000000000000E+000
(PID.TID 0000.0001)     Wall clock time:  0.380044698715210
(PID.TID 0000.0001)          No. starts:         480
(PID.TID 0000.0001)           No. stops:         480
(PID.TID 0000.0001)   Seconds in section "DO_THE_MODEL_IO     [FORWARD_STEP]":
(PID.TID 0000.0001)           User time:  0.173879086971283
(PID.TID 0000.0001)         System time:  0.000000000000000E+000
(PID.TID 0000.0001)     Wall clock time:   2.98056721687317
(PID.TID 0000.0001)          No. starts:         480
(PID.TID 0000.0001)           No. stops:         480
(PID.TID 0000.0001)   Seconds in section "DO_WRITE_PICKUP     [FORWARD_STEP]":
(PID.TID 0000.0001)           User time:  5.042612552642822E-003
(PID.TID 0000.0001)         System time:  0.000000000000000E+000
(PID.TID 0000.0001)     Wall clock time:  9.699606895446777E-002
(PID.TID 0000.0001)          No. starts:         480
(PID.TID 0000.0001)           No. stops:         480
(PID.TID 0000.0001) // ======================================================
(PID.TID 0000.0001) // Tile <-> Tile communication statistics
(PID.TID 0000.0001) // ======================================================
(PID.TID 0000.0001) // o Tile number: 000001
(PID.TID 0000.0001) //         No. X exchanges =              0
(PID.TID 0000.0001) //            Max. X spins =              0
(PID.TID 0000.0001) //            Min. X spins =     1000000000
(PID.TID 0000.0001) //          Total. X spins =              0
(PID.TID 0000.0001) //            Avg. X spins =       0.00E+00
(PID.TID 0000.0001) //         No. Y exchanges =              0
(PID.TID 0000.0001) //            Max. Y spins =              0
(PID.TID 0000.0001) //            Min. Y spins =     1000000000
(PID.TID 0000.0001) //          Total. Y spins =              0
(PID.TID 0000.0001) //            Avg. Y spins =       0.00E+00
(PID.TID 0000.0001) // o Thread number: 000001
(PID.TID 0000.0001) //            No. barriers =        1641920
(PID.TID 0000.0001) //      Max. barrier spins =              1
(PID.TID 0000.0001) //      Min. barrier spins =              1
(PID.TID 0000.0001) //     Total barrier spins =        1641920
(PID.TID 0000.0001) //      Avg. barrier spins =       1.00E+00
PROGRAM MAIN: Execution ended Normally
