(PID.TID 0000.0001) 
(PID.TID 0000.0001) // ======================================================
(PID.TID 0000.0001) //                      MITgcm UV
(PID.TID 0000.0001) //                      =========
(PID.TID 0000.0001) // ======================================================
(PID.TID 0000.0001) // execution environment starting up...
(PID.TID 0000.0001) 
(PID.TID 0000.0001) // MITgcmUV version:  checkpoint67v
(PID.TID 0000.0001) // Build user:        eavesr
(PID.TID 0000.0001) // Build host:        atmlxint3
(PID.TID 0000.0001) // Build date:        Mon 15 Feb 14:14:00 GMT 2021
(PID.TID 0000.0001) 
(PID.TID 0000.0001) // =======================================================
(PID.TID 0000.0001) // Execution Environment parameter file "eedata"
(PID.TID 0000.0001) // =======================================================
(PID.TID 0000.0001) ># Example "eedata" file
(PID.TID 0000.0001) ># Lines beginning "#" are comments
(PID.TID 0000.0001) >#  nTx      :: No. threads per process in X
(PID.TID 0000.0001) >#  nTy      :: No. threads per process in Y
(PID.TID 0000.0001) ># debugMode :: print debug msg (sequence of S/R calls)
(PID.TID 0000.0001) > &EEPARMS
(PID.TID 0000.0001) > nTx=1,
(PID.TID 0000.0001) > nTy=1,
(PID.TID 0000.0001) > &
(PID.TID 0000.0001) ># Note: Some systems use & as the namelist terminator (as shown here).
(PID.TID 0000.0001) >#       Other systems use a / character.
(PID.TID 0000.0001) 
(PID.TID 0000.0001) // =======================================================
(PID.TID 0000.0001) // Computational Grid Specification ( see files "SIZE.h" )
(PID.TID 0000.0001) //                                  ( and "eedata"       )
(PID.TID 0000.0001) // =======================================================
(PID.TID 0000.0001)      nPx =    1 ; /* No. processes in X */
(PID.TID 0000.0001)      nPy =    1 ; /* No. processes in Y */
(PID.TID 0000.0001)      nSx =    1 ; /* No. tiles in X per process */
(PID.TID 0000.0001)      nSy =    1 ; /* No. tiles in Y per process */
(PID.TID 0000.0001)      sNx =   62 ; /* Tile size in X */
(PID.TID 0000.0001)      sNy =   62 ; /* Tile size in Y */
(PID.TID 0000.0001)      OLx =    2 ; /* Tile overlap distance in X */
(PID.TID 0000.0001)      OLy =    2 ; /* Tile overlap distance in Y */
(PID.TID 0000.0001)      nTx =    1 ; /* No. threads in X per process */
(PID.TID 0000.0001)      nTy =    1 ; /* No. threads in Y per process */
(PID.TID 0000.0001)       Nr =    1 ; /* No. levels in the vertical   */
(PID.TID 0000.0001)       Nx =   62 ; /* Total domain size in X ( = nPx*nSx*sNx ) */
(PID.TID 0000.0001)       Ny =   62 ; /* Total domain size in Y ( = nPy*nSy*sNy ) */
(PID.TID 0000.0001)   nTiles =    1 ; /* Total no. tiles per process ( = nSx*nSy ) */
(PID.TID 0000.0001)   nProcs =    1 ; /* Total no. processes ( = nPx*nPy ) */
(PID.TID 0000.0001) nThreads =    1 ; /* Total no. threads per process ( = nTx*nTy ) */
(PID.TID 0000.0001) usingMPI =    F ; /* Flag used to control whether MPI is in use */
(PID.TID 0000.0001)                   /*  note: To execute a program with MPI calls */
(PID.TID 0000.0001)                   /*  it must be launched appropriately e.g     */
(PID.TID 0000.0001)                   /*  "mpirun -np 64 ......"                    */
(PID.TID 0000.0001) useCoupler=   F ; /* Flag used to control communications with   */
(PID.TID 0000.0001)                   /*  other model components, through a coupler */
(PID.TID 0000.0001) useNest2W_parent =    F ;/* Control 2-W Nesting comm */
(PID.TID 0000.0001) useNest2W_child  =    F ;/* Control 2-W Nesting comm */
(PID.TID 0000.0001) debugMode =    F ; /* print debug msg. (sequence of S/R calls)  */
(PID.TID 0000.0001) printMapIncludesZeros=    F ; /* print zeros in Std.Output maps */
(PID.TID 0000.0001) maxLengthPrt1D=   65 /* maxLength of 1D array printed to StdOut */
(PID.TID 0000.0001) 
(PID.TID 0000.0001) // ======================================================
(PID.TID 0000.0001) // Mapping of tiles to threads
(PID.TID 0000.0001) // ======================================================
(PID.TID 0000.0001) // -o- Thread   1, tiles (   1:   1,   1:   1)
(PID.TID 0000.0001) 
(PID.TID 0000.0001) // ======================================================
(PID.TID 0000.0001) // Tile <-> Tile connectvity table
(PID.TID 0000.0001) // ======================================================
(PID.TID 0000.0001) // Tile number: 000001 (process no. = 000000)
(PID.TID 0000.0001) //        WEST: Tile = 000001, Process = 000000, Comm = put
(PID.TID 0000.0001) //                bi = 000001, bj = 000001
(PID.TID 0000.0001) //        EAST: Tile = 000001, Process = 000000, Comm = put
(PID.TID 0000.0001) //                bi = 000001, bj = 000001
(PID.TID 0000.0001) //       SOUTH: Tile = 000001, Process = 000000, Comm = put
(PID.TID 0000.0001) //                bi = 000001, bj = 000001
(PID.TID 0000.0001) //       NORTH: Tile = 000001, Process = 000000, Comm = put
(PID.TID 0000.0001) //                bi = 000001, bj = 000001
(PID.TID 0000.0001) 
(PID.TID 0000.0001)  INI_PARMS: opening model parameter file "data"
(PID.TID 0000.0001)  OPEN_COPY_DATA_FILE: opening file data
(PID.TID 0000.0001) // =======================================================
(PID.TID 0000.0001) // Parameter file "data"
(PID.TID 0000.0001) // =======================================================
(PID.TID 0000.0001) ># Model parameters
(PID.TID 0000.0001) ># Continuous equation parameters
(PID.TID 0000.0001) > &PARM01
(PID.TID 0000.0001) > viscAh=4.E2,
(PID.TID 0000.0001) > f0=1.E-4,
(PID.TID 0000.0001) > beta=1.E-11,
(PID.TID 0000.0001) > rhoConst=1000.,
(PID.TID 0000.0001) > gBaro=9.81,
(PID.TID 0000.0001) > rigidLid=.FALSE.,
(PID.TID 0000.0001) > implicitFreeSurface=.TRUE.,
(PID.TID 0000.0001) ># momAdvection=.FALSE.,
(PID.TID 0000.0001) > tempStepping=.FALSE.,
(PID.TID 0000.0001) > saltStepping=.FALSE.,
(PID.TID 0000.0001) > useSingleCpuIO=.TRUE.,
(PID.TID 0000.0001) > hFacMin=0.1,
(PID.TID 0000.0001) > &
(PID.TID 0000.0001) >
(PID.TID 0000.0001) ># Elliptic solver parameters
(PID.TID 0000.0001) > &PARM02
(PID.TID 0000.0001) > cg2dTargetResidual=1.E-7,
(PID.TID 0000.0001) > cg2dMaxIters=1000,
(PID.TID 0000.0001) > &
(PID.TID 0000.0001) >
(PID.TID 0000.0001) ># Time stepping parameters
(PID.TID 0000.0001) > &PARM03
(PID.TID 0000.0001) > nIter0=0,
(PID.TID 0000.0001) > nTimeSteps=21600,
(PID.TID 0000.0001) > deltaT=1200.0,
(PID.TID 0000.0001) > pChkptFreq=31104000.0,
(PID.TID 0000.0001) > chkptFreq=25920000.0,
(PID.TID 0000.0001) > dumpFreq=86400.0,
(PID.TID 0000.0001) > monitorFreq=86400.,
(PID.TID 0000.0001) > monitorSelect=2,
(PID.TID 0000.0001) >#-for longer run (3.0 yr):
(PID.TID 0000.0001) ># nTimeSteps=77760,
(PID.TID 0000.0001) ># monitorFreq=864000.,
(PID.TID 0000.0001) > &
(PID.TID 0000.0001) >
(PID.TID 0000.0001) ># Gridding parameters
(PID.TID 0000.0001) > &PARM04
(PID.TID 0000.0001) > usingCartesianGrid=.TRUE.,
(PID.TID 0000.0001) > delX=62*20.E3,
(PID.TID 0000.0001) > delY=62*20.E3,
(PID.TID 0000.0001) > xgOrigin=-20.E3,
(PID.TID 0000.0001) > ygOrigin=-20.E3,
(PID.TID 0000.0001) > delR=5000.,
(PID.TID 0000.0001) > &
(PID.TID 0000.0001) >
(PID.TID 0000.0001) ># Input datasets
(PID.TID 0000.0001) > &PARM05
(PID.TID 0000.0001) > bathyFile='bathy.bin'
(PID.TID 0000.0001) > zonalWindFile='windx_cosy.bin',
(PID.TID 0000.0001) >#zonalWindFile='windx_siny.bin',
(PID.TID 0000.0001) > meridWindFile=,
(PID.TID 0000.0001) > &
(PID.TID 0000.0001) 
(PID.TID 0000.0001)  INI_PARMS ; starts to read PARM01
(PID.TID 0000.0001)  INI_PARMS ; read PARM01 : OK
(PID.TID 0000.0001)  INI_PARMS ; starts to read PARM02
(PID.TID 0000.0001)  INI_PARMS ; read PARM02 : OK
(PID.TID 0000.0001)  INI_PARMS ; starts to read PARM03
(PID.TID 0000.0001)  INI_PARMS ; read PARM03 : OK
(PID.TID 0000.0001)  INI_PARMS ; starts to read PARM04
(PID.TID 0000.0001)  INI_PARMS ; read PARM04 : OK
(PID.TID 0000.0001)  INI_PARMS ; starts to read PARM05
(PID.TID 0000.0001)  INI_PARMS ; read PARM05 : OK
(PID.TID 0000.0001)  INI_PARMS: finished reading file "data"
(PID.TID 0000.0001)  PACKAGES_BOOT: opening data.pkg
(PID.TID 0000.0001)  OPEN_COPY_DATA_FILE: opening file data.pkg
(PID.TID 0000.0001) // =======================================================
(PID.TID 0000.0001) // Parameter file "data.pkg"
(PID.TID 0000.0001) // =======================================================
(PID.TID 0000.0001) ># Packages
(PID.TID 0000.0001) > &PACKAGES
(PID.TID 0000.0001) > &
(PID.TID 0000.0001) 
(PID.TID 0000.0001)  PACKAGES_BOOT: finished reading data.pkg
(PID.TID 0000.0001)  PACKAGES_BOOT: On/Off package Summary
 --------  pkgs with a standard "usePKG" On/Off switch in "data.pkg":  --------
 -------- pkgs without standard "usePKG" On/Off switch in "data.pkg":  --------
 pkg/generic_advdiff      compiled but not used ( useGAD                   = F )
 pkg/mom_common           compiled   and   used ( momStepping              = T )
 pkg/mom_vecinv           compiled but not used ( +vectorInvariantMomentum = F )
 pkg/mom_fluxform         compiled   and   used ( & not vectorInvariantMom = T )
 pkg/monitor              compiled   and   used ( monitorFreq > 0.         = T )
 pkg/debug                compiled but not used ( debugMode                = F )
 pkg/rw                   compiled   and   used
 pkg/mdsio                compiled   and   used
(PID.TID 0000.0001)  PACKAGES_BOOT: End of package Summary
(PID.TID 0000.0001) 
(PID.TID 0000.0001) SET_PARMS: done
(PID.TID 0000.0001) Enter INI_VERTICAL_GRID: setInterFDr=    T ; setCenterDr=    F
(PID.TID 0000.0001) %MON XC_max                       =   1.2100000000000E+06
(PID.TID 0000.0001) %MON XC_min                       =  -1.0000000000000E+04
(PID.TID 0000.0001) %MON XC_mean                      =   6.0000000000000E+05
(PID.TID 0000.0001) %MON XC_sd                        =   3.5791060336347E+05
(PID.TID 0000.0001) %MON XG_max                       =   1.2000000000000E+06
(PID.TID 0000.0001) %MON XG_min                       =  -2.0000000000000E+04
(PID.TID 0000.0001) %MON XG_mean                      =   5.9000000000000E+05
(PID.TID 0000.0001) %MON XG_sd                        =   3.5791060336347E+05
(PID.TID 0000.0001) %MON DXC_max                      =   2.0000000000000E+04
(PID.TID 0000.0001) %MON DXC_min                      =   2.0000000000000E+04
(PID.TID 0000.0001) %MON DXC_mean                     =   2.0000000000000E+04
(PID.TID 0000.0001) %MON DXC_sd                       =   3.6379788070917E-12
(PID.TID 0000.0001) %MON DXF_max                      =   2.0000000000000E+04
(PID.TID 0000.0001) %MON DXF_min                      =   2.0000000000000E+04
(PID.TID 0000.0001) %MON DXF_mean                     =   2.0000000000000E+04
(PID.TID 0000.0001) %MON DXF_sd                       =   3.6379788070917E-12
(PID.TID 0000.0001) %MON DXG_max                      =   2.0000000000000E+04
(PID.TID 0000.0001) %MON DXG_min                      =   2.0000000000000E+04
(PID.TID 0000.0001) %MON DXG_mean                     =   2.0000000000000E+04
(PID.TID 0000.0001) %MON DXG_sd                       =   3.6379788070917E-12
(PID.TID 0000.0001) %MON DXV_max                      =   2.0000000000000E+04
(PID.TID 0000.0001) %MON DXV_min                      =   2.0000000000000E+04
(PID.TID 0000.0001) %MON DXV_mean                     =   2.0000000000000E+04
(PID.TID 0000.0001) %MON DXV_sd                       =   3.6379788070917E-12
(PID.TID 0000.0001) %MON YC_max                       =   1.2100000000000E+06
(PID.TID 0000.0001) %MON YC_min                       =  -1.0000000000000E+04
(PID.TID 0000.0001) %MON YC_mean                      =   6.0000000000000E+05
(PID.TID 0000.0001) %MON YC_sd                        =   3.5791060336347E+05
(PID.TID 0000.0001) %MON YG_max                       =   1.2000000000000E+06
(PID.TID 0000.0001) %MON YG_min                       =  -2.0000000000000E+04
(PID.TID 0000.0001) %MON YG_mean                      =   5.9000000000000E+05
(PID.TID 0000.0001) %MON YG_sd                        =   3.5791060336347E+05
(PID.TID 0000.0001) %MON DYC_max                      =   2.0000000000000E+04
(PID.TID 0000.0001) %MON DYC_min                      =   2.0000000000000E+04
(PID.TID 0000.0001) %MON DYC_mean                     =   2.0000000000000E+04
(PID.TID 0000.0001) %MON DYC_sd                       =   3.6379788070917E-12
(PID.TID 0000.0001) %MON DYF_max                      =   2.0000000000000E+04
(PID.TID 0000.0001) %MON DYF_min                      =   2.0000000000000E+04
(PID.TID 0000.0001) %MON DYF_mean                     =   2.0000000000000E+04
(PID.TID 0000.0001) %MON DYF_sd                       =   3.6379788070917E-12
(PID.TID 0000.0001) %MON DYG_max                      =   2.0000000000000E+04
(PID.TID 0000.0001) %MON DYG_min                      =   2.0000000000000E+04
(PID.TID 0000.0001) %MON DYG_mean                     =   2.0000000000000E+04
(PID.TID 0000.0001) %MON DYG_sd                       =   3.6379788070917E-12
(PID.TID 0000.0001) %MON DYU_max                      =   2.0000000000000E+04
(PID.TID 0000.0001) %MON DYU_min                      =   2.0000000000000E+04
(PID.TID 0000.0001) %MON DYU_mean                     =   2.0000000000000E+04
(PID.TID 0000.0001) %MON DYU_sd                       =   3.6379788070917E-12
(PID.TID 0000.0001) %MON RA_max                       =   4.0000000000000E+08
(PID.TID 0000.0001) %MON RA_min                       =   4.0000000000000E+08
(PID.TID 0000.0001) %MON RA_mean                      =   4.0000000000000E+08
(PID.TID 0000.0001) %MON RA_sd                        =   5.9604644775391E-08
(PID.TID 0000.0001) %MON RAW_max                      =   4.0000000000000E+08
(PID.TID 0000.0001) %MON RAW_min                      =   4.0000000000000E+08
(PID.TID 0000.0001) %MON RAW_mean                     =   4.0000000000000E+08
(PID.TID 0000.0001) %MON RAW_sd                       =   5.9604644775391E-08
(PID.TID 0000.0001) %MON RAS_max                      =   4.0000000000000E+08
(PID.TID 0000.0001) %MON RAS_min                      =   4.0000000000000E+08
(PID.TID 0000.0001) %MON RAS_mean                     =   4.0000000000000E+08
(PID.TID 0000.0001) %MON RAS_sd                       =   5.9604644775391E-08
(PID.TID 0000.0001) %MON RAZ_max                      =   4.0000000000000E+08
(PID.TID 0000.0001) %MON RAZ_min                      =   4.0000000000000E+08
(PID.TID 0000.0001) %MON RAZ_mean                     =   4.0000000000000E+08
(PID.TID 0000.0001) %MON RAZ_sd                       =   5.9604644775391E-08
(PID.TID 0000.0001) %MON AngleCS_max                  =   1.0000000000000E+00
(PID.TID 0000.0001) %MON AngleCS_min                  =   1.0000000000000E+00
(PID.TID 0000.0001) %MON AngleCS_mean                 =   1.0000000000000E+00
(PID.TID 0000.0001) %MON AngleCS_sd                   =   0.0000000000000E+00
(PID.TID 0000.0001) %MON AngleSN_max                  =   0.0000000000000E+00
(PID.TID 0000.0001) %MON AngleSN_min                  =   0.0000000000000E+00
(PID.TID 0000.0001) %MON AngleSN_mean                 =   0.0000000000000E+00
(PID.TID 0000.0001) %MON AngleSN_sd                   =   0.0000000000000E+00
(PID.TID 0000.0001)  MDS_READ_FIELD: opening global file: bathy.bin
(PID.TID 0000.0001) // =======================================================
(PID.TID 0000.0001) // Field Model R_low (ini_masks_etc)
(PID.TID 0000.0001) // CMIN =         -4.998717285156250E+03
(PID.TID 0000.0001) // CMAX =         -4.500000000000000E+03
(PID.TID 0000.0001) // CINT =          1.847101056134259E+01
(PID.TID 0000.0001) // SYMBOLS (CMIN->CMAX): -abcdefghijklmnopqrstuvwxyz+
(PID.TID 0000.0001) //                  0.0: .
(PID.TID 0000.0001) // RANGE I (Lo:Hi:Step):(    -1:    64:     1)
(PID.TID 0000.0001) // RANGE J (Lo:Hi:Step):(    64:    -1:    -1)
(PID.TID 0000.0001) // RANGE K (Lo:Hi:Step):(   1:   1:   1)
(PID.TID 0000.0001) // =======================================================
(PID.TID 0000.0001) K =   1
(PID.TID 0000.0001) //                I=8       I=18      I=28      I=38      I=48      I=58
(PID.TID 0000.0001) // |--J--|101234567|901234567|901234567|901234567|901234567|901234567|901234
(PID.TID 0000.0001) //     64 -..---aaaaaaaabbbbbbbbbbbbcccccccccccccbbbbbbbbbbbbaaaaaaaa----..-
(PID.TID 0000.0001) //     63 ..................................................................
(PID.TID 0000.0001) //     62 ..................................................................
(PID.TID 0000.0001) //     61 -..-------aaaaaaaaaaaaaaaaaaaaaaaaaaaaaaaaaaaaaaaaaaaaa--------..-
(PID.TID 0000.0001) //     60 -..---aaaaaaaabbbbbbbbbbbbcccccccccccccbbbbbbbbbbbbaaaaaaaa----..-
(PID.TID 0000.0001) //     59 -..-aaaaabbbbbbcccccccdddddddddddddddddddddcccccccbbbbbbaaaaa--..-
(PID.TID 0000.0001) //     58 -..-aaabbbbcccccdddddeeeeeeeeeeeeeeeeeeeeeeedddddcccccbbbbaaa--..-
(PID.TID 0000.0001) //     57 -..aaabbbcccddddeeeeefffffffgggggggggfffffffeeeeeddddcccbbbaaa-..a
(PID.TID 0000.0001) //     56 -..aabbbcccddeeeffffggggghhhhhhhhhhhhhhhgggggffffeeeddcccbbbaa-..a
(PID.TID 0000.0001) //     55 -..aabbccdddeefffggghhhhiiiiiiiiiiiiiiiiihhhhgggfffeedddccbbaa-..a
(PID.TID 0000.0001) //     54 -..abbccddeefffgghhhiiijjjjjjjkkkkkjjjjjjjiiihhhggfffeeddccbba-..a
(PID.TID 0000.0001) //     53 a..abbccdeeffgghhiiijjjkkkkklllllllllkkkkkjjjiiihhggffeedccbbaa..a
(PID.TID 0000.0001) //     52 a..abccddeffgghhiijjkkkllllmmmmmmmmmmmllllkkkjjiihhggffeddccbaa..a
(PID.TID 0000.0001) //     51 a..abcddeffghhiijjkklllmmmnnnnnnnnnnnnnmmmlllkkjjiihhgffeddcbaa..a
(PID.TID 0000.0001) //     50 a..abcdeefgghiijkkllmmmnnnooooooooooooonnnmmmllkkjiihggfeedcbaa..a
(PID.TID 0000.0001) //     49 a..bbcdeffghiijkklmmnnnooopppppppppppppooonnnmmlkkjiihgffedcbba..b
(PID.TID 0000.0001) //     48 a..bccdefghhijkklmmnnoopppqqqqqrrrqqqqqpppoonnmmlkkjihhgfedccba..b
(PID.TID 0000.0001) //     47 a..bcdeffghijkklmmnooppqqqrrrrrsssrrrrrqqqppoonmmlkkjihgffedcba..b
(PID.TID 0000.0001) //     46 a..bcdefghiijklmmnoopqqrrrssssstttsssssrrrqqpoonmmlkjiihgfedcba..b
(PID.TID 0000.0001) //     45 a..bcdefghijklmmnoppqqrrsstttttttttttttssrrqqpponmmlkjihgfedcba..b
(PID.TID 0000.0001) //     44 a..bcdefghijklmnoopqqrsstttuuuuuuuuuuutttssrqqpoonmlkjihgfedcba..b
(PID.TID 0000.0001) //     43 a..bcdeghijklmnnopqqrssttuuuvvvvvvvvvuuuttssrqqponnmlkjihgedcba..b
(PID.TID 0000.0001) //     42 a..bcefghijklmnopqqrsstuuuvvvwwwwwwwvvvuuutssrqqponmlkjihgfecba..b
(PID.TID 0000.0001) //     41 a..bdefghijklmnopqrsstuuvvwwwwwxxxwwwwwvvuutssrqponmlkjihgfedba..b
(PID.TID 0000.0001) //     40 a..bdefghjklmnopqrrstuuvvwwwxxxxxxxxxwwwvvuutsrrqponmlkjhgfedba..b
(PID.TID 0000.0001) //     39 a..bdefgijklmnopqrsttuvvwwxxxyyyyyyyxxxwwvvuttsrqponmlkjigfedba..b
(PID.TID 0000.0001) //     38 a..bdefhijklmnopqrstuuvwwxxyyyyyyyyyyyxxwwvuutsrqponmlkjihfedba..b
(PID.TID 0000.0001) //     37 a..cdefhijklnopqrsttuvwwxxyyyyzzzzzyyyyxxwwvuttsrqponlkjihfedca..c
(PID.TID 0000.0001) //     36 a..cdefhijkmnopqrstuuvwwxyyyzzzzzzzzzyyyxwwvuutsrqponmkjihfedca..c
(PID.TID 0000.0001) //     35 a..cdeghijlmnopqrstuvvwxxyyzzzzzzzzzzzyyxxwvvutsrqponmljihgedca..c
(PID.TID 0000.0001) //     34 a..cdeghijlmnopqrstuvwwxyyyzzz+++++zzzyyyxwwvutsrqponmljihgedca..c
(PID.TID 0000.0001) //     33 a..cdeghiklmnopqrstuvwwxyyzzz+++++++zzzyyxwwvutsrqponmlkihgedca..c
(PID.TID 0000.0001) //     32 a..cdeghiklmnoprsttuvwxxyyzzz+++++++zzzyyxxwvuttsrponmlkihgedca..c
(PID.TID 0000.0001) //     31 a..cdeghiklmnoprsttuvwxxyyzzz+++++++zzzyyxxwvuttsrponmlkihgedca..c
(PID.TID 0000.0001) //     30 a..cdeghiklmnoprsttuvwxxyyzzz+++++++zzzyyxxwvuttsrponmlkihgedca..c
(PID.TID 0000.0001) //     29 a..cdeghiklmnopqrstuvwwxyyzzz+++++++zzzyyxwwvutsrqponmlkihgedca..c
(PID.TID 0000.0001) //     28 a..cdeghijlmnopqrstuvwwxyyyzzz+++++zzzyyyxwwvutsrqponmljihgedca..c
(PID.TID 0000.0001) //     27 a..cdeghijlmnopqrstuvvwxxyyzzzzzzzzzzzyyxxwvvutsrqponmljihgedca..c
(PID.TID 0000.0001) //     26 a..cdefhijkmnopqrstuuvwwxyyyzzzzzzzzzyyyxwwvuutsrqponmkjihfedca..c
(PID.TID 0000.0001) //     25 a..cdefhijklnopqrsttuvwwxxyyyyzzzzzyyyyxxwwvuttsrqponlkjihfedca..c
(PID.TID 0000.0001) //     24 a..bdefhijklmnopqrstuuvwwxxyyyyyyyyyyyxxwwvuutsrqponmlkjihfedba..b
(PID.TID 0000.0001) //     23 a..bdefgijklmnopqrsttuvvwwxxxyyyyyyyxxxwwvvuttsrqponmlkjigfedba..b
(PID.TID 0000.0001) //     22 a..bdefghjklmnopqrrstuuvvwwwxxxxxxxxxwwwvvuutsrrqponmlkjhgfedba..b
(PID.TID 0000.0001) //     21 a..bdefghijklmnopqrsstuuvvwwwwwxxxwwwwwvvuutssrqponmlkjihgfedba..b
(PID.TID 0000.0001) //     20 a..bcefghijklmnopqqrsstuuuvvvwwwwwwwvvvuuutssrqqponmlkjihgfecba..b
(PID.TID 0000.0001) //     19 a..bcdeghijklmnnopqqrssttuuuvvvvvvvvvuuuttssrqqponnmlkjihgedcba..b
(PID.TID 0000.0001) //     18 a..bcdefghijklmnoopqqrsstttuuuuuuuuuuutttssrqqpoonmlkjihgfedcba..b
(PID.TID 0000.0001) //     17 a..bcdefghijklmmnoppqqrrsstttttttttttttssrrqqpponmmlkjihgfedcba..b
(PID.TID 0000.0001) //     16 a..bcdefghiijklmmnoopqqrrrssssstttsssssrrrqqpoonmmlkjiihgfedcba..b
(PID.TID 0000.0001) //     15 a..bcdeffghijkklmmnooppqqqrrrrrsssrrrrrqqqppoonmmlkkjihgffedcba..b
(PID.TID 0000.0001) //     14 a..bccdefghhijkklmmnnoopppqqqqqrrrqqqqqpppoonnmmlkkjihhgfedccba..b
(PID.TID 0000.0001) //     13 a..bbcdeffghiijkklmmnnnooopppppppppppppooonnnmmlkkjiihgffedcbba..b
(PID.TID 0000.0001) //     12 a..abcdeefgghiijkkllmmmnnnooooooooooooonnnmmmllkkjiihggfeedcbaa..a
(PID.TID 0000.0001) //     11 a..abcddeffghhiijjkklllmmmnnnnnnnnnnnnnmmmlllkkjjiihhgffeddcbaa..a
(PID.TID 0000.0001) //     10 a..abccddeffgghhiijjkkkllllmmmmmmmmmmmllllkkkjjiihhggffeddccbaa..a
(PID.TID 0000.0001) //      9 a..abbccdeeffgghhiiijjjkkkkklllllllllkkkkkjjjiiihhggffeedccbbaa..a
(PID.TID 0000.0001) //      8 -..abbccddeefffgghhhiiijjjjjjjkkkkkjjjjjjjiiihhhggfffeeddccbba-..a
(PID.TID 0000.0001) //      7 -..aabbccdddeefffggghhhhiiiiiiiiiiiiiiiiihhhhgggfffeedddccbbaa-..a
(PID.TID 0000.0001) //      6 -..aabbbcccddeeeffffggggghhhhhhhhhhhhhhhgggggffffeeeddcccbbbaa-..a
(PID.TID 0000.0001) //      5 -..aaabbbcccddddeeeeefffffffgggggggggfffffffeeeeeddddcccbbbaaa-..a
(PID.TID 0000.0001) //      4 -..-aaabbbbcccccdddddeeeeeeeeeeeeeeeeeeeeeeedddddcccccbbbbaaa--..-
(PID.TID 0000.0001) //      3 -..-aaaaabbbbbbcccccccdddddddddddddddddddddcccccccbbbbbbaaaaa--..-
(PID.TID 0000.0001) //      2 -..---aaaaaaaabbbbbbbbbbbbcccccccccccccbbbbbbbbbbbbaaaaaaaa----..-
(PID.TID 0000.0001) //      1 ..................................................................
(PID.TID 0000.0001) //      0 ..................................................................
(PID.TID 0000.0001) //     -1 -..-------aaaaaaaaaaaaaaaaaaaaaaaaaaaaaaaaaaaaaaaaaaaaa--------..-
(PID.TID 0000.0001) // =======================================================
(PID.TID 0000.0001) // END OF FIELD                                          =
(PID.TID 0000.0001) // =======================================================
(PID.TID 0000.0001) 
(PID.TID 0000.0001) // =======================================================
(PID.TID 0000.0001) // Field Model Ro_surf (ini_masks_etc)
(PID.TID 0000.0001) // CMIN =          1.000000000000000E+32
(PID.TID 0000.0001) // CMAX =         -1.000000000000000E+32
(PID.TID 0000.0001) // CINT =          0.000000000000000E+00
(PID.TID 0000.0001) // SYMBOLS (CMIN->CMAX): -abcdefghijklmnopqrstuvwxyz+
(PID.TID 0000.0001) //                  0.0: .
(PID.TID 0000.0001) // RANGE I (Lo:Hi:Step):(    -1:    64:     1)
(PID.TID 0000.0001) // RANGE J (Lo:Hi:Step):(    64:    -1:    -1)
(PID.TID 0000.0001) // RANGE K (Lo:Hi:Step):(   1:   1:   1)
(PID.TID 0000.0001) // =======================================================
(PID.TID 0000.0001) // =======================================================
(PID.TID 0000.0001) // END OF FIELD                                          =
(PID.TID 0000.0001) // =======================================================
(PID.TID 0000.0001) 
(PID.TID 0000.0001) // =======================================================
(PID.TID 0000.0001) // Field hFacC at iteration          0
(PID.TID 0000.0001) // CMIN =          9.000000000000000E-01
(PID.TID 0000.0001) // CMAX =          9.997434570312500E-01
(PID.TID 0000.0001) // CINT =          3.694202112268518E-03
(PID.TID 0000.0001) // SYMBOLS (CMIN->CMAX): -abcdefghijklmnopqrstuvwxyz+
(PID.TID 0000.0001) //                  0.0: .
(PID.TID 0000.0001) // RANGE I (Lo:Hi:Step):(    -1:    64:     1)
(PID.TID 0000.0001) // RANGE J (Lo:Hi:Step):(    64:    -1:    -1)
(PID.TID 0000.0001) // RANGE K (Lo:Hi:Step):(   1:   1:   1)
(PID.TID 0000.0001) // =======================================================
(PID.TID 0000.0001) K =   1
(PID.TID 0000.0001) //                I=8       I=18      I=28      I=38      I=48      I=58
(PID.TID 0000.0001) // |--J--|101234567|901234567|901234567|901234567|901234567|901234567|901234
(PID.TID 0000.0001) //     64 +..+++zzzzzzzzyyyyyyyyyyyyxxxxxxxxxxxxxyyyyyyyyyyyyzzzzzzzz++++..+
(PID.TID 0000.0001) //     63 ..................................................................
(PID.TID 0000.0001) //     62 ..................................................................
(PID.TID 0000.0001) //     61 +..+++++++zzzzzzzzzzzzzzzzzzzzzzzzzzzzzzzzzzzzzzzzzzzzz++++++++..+
(PID.TID 0000.0001) //     60 +..+++zzzzzzzzyyyyyyyyyyyyxxxxxxxxxxxxxyyyyyyyyyyyyzzzzzzzz++++..+
(PID.TID 0000.0001) //     59 +..+zzzzzyyyyyyxxxxxxxwwwwwwwwwwwwwwwwwwwwwxxxxxxxyyyyyyzzzzz++..+
(PID.TID 0000.0001) //     58 +..+zzzyyyyxxxxxwwwwwvvvvvvvvvvvvvvvvvvvvvvvwwwwwxxxxxyyyyzzz++..+
(PID.TID 0000.0001) //     57 +..zzzyyyxxxwwwwvvvvvuuuuuuutttttttttuuuuuuuvvvvvwwwwxxxyyyzzz+..z
(PID.TID 0000.0001) //     56 +..zzyyyxxxwwvvvuuuutttttssssssssssssssstttttuuuuvvvwwxxxyyyzz+..z
(PID.TID 0000.0001) //     55 +..zzyyxxwwwvvuuutttssssrrrrrrrrrrrrrrrrrsssstttuuuvvwwwxxyyzz+..z
(PID.TID 0000.0001) //     54 +..zyyxxwwvvuuuttsssrrrqqqqqqqpppppqqqqqqqrrrsssttuuuvvwwxxyyz+..z
(PID.TID 0000.0001) //     53 z..zyyxxwvvuuttssrrrqqqpppppooooooooopppppqqqrrrssttuuvvwxxyyzz..z
(PID.TID 0000.0001) //     52 z..zyxxwwvuuttssrrqqpppoooonnnnnnnnnnnoooopppqqrrssttuuvwwxxyzz..z
(PID.TID 0000.0001) //     51 z..zyxwwvuutssrrqqppooonnnmmmmmmmmmmmmmnnnoooppqqrrsstuuvwwxyzz..z
(PID.TID 0000.0001) //     50 z..zyxwvvuttsrrqppoonnnmmmlllllllllllllmmmnnnooppqrrsttuvvwxyzz..z
(PID.TID 0000.0001) //     49 z..yyxwvuutsrrqpponnmmmlllkkkkkkkkkkkkklllmmmnnoppqrrstuuvwxyyz..y
(PID.TID 0000.0001) //     48 z..yxxwvutssrqpponnmmllkkkjjjjjiiijjjjjkkkllmmnnoppqrsstuvwxxyz..y
(PID.TID 0000.0001) //     47 z..yxwvuutsrqpponnmllkkjjjiiiiihhhiiiiijjjkkllmnnoppqrstuuvwxyz..y
(PID.TID 0000.0001) //     46 z..yxwvutsrrqponnmllkjjiiihhhhhggghhhhhiiijjkllmnnopqrrstuvwxyz..y
(PID.TID 0000.0001) //     45 z..yxwvutsrqponnmlkkjjiihhggggggggggggghhiijjkklmnnopqrstuvwxyz..y
(PID.TID 0000.0001) //     44 z..yxwvutsrqponmllkjjihhgggfffffffffffggghhijjkllmnopqrstuvwxyz..y
(PID.TID 0000.0001) //     43 z..yxwvtsrqponmmlkjjihhggfffeeeeeeeeefffgghhijjklmmnopqrstvwxyz..y
(PID.TID 0000.0001) //     42 z..yxvutsrqponmlkjjihhgfffeeedddddddeeefffghhijjklmnopqrstuvxyz..y
(PID.TID 0000.0001) //     41 z..ywvutsrqponmlkjihhgffeedddddcccdddddeeffghhijklmnopqrstuvwyz..y
(PID.TID 0000.0001) //     40 z..ywvutsqponmlkjiihgffeedddcccccccccdddeeffghiijklmnopqstuvwyz..y
(PID.TID 0000.0001) //     39 z..ywvutrqponmlkjihggfeeddcccbbbbbbbcccddeefgghijklmnopqrtuvwyz..y
(PID.TID 0000.0001) //     38 z..ywvusrqponmlkjihgffeddccbbbbbbbbbbbccddeffghijklmnopqrsuvwyz..y
(PID.TID 0000.0001) //     37 z..xwvusrqpomlkjihggfeddccbbbbaaaaabbbbccddefgghijklmopqrsuvwxz..x
(PID.TID 0000.0001) //     36 z..xwvusrqpnmlkjihgffeddcbbbaaaaaaaaabbbcddeffghijklmnpqrsuvwxz..x
(PID.TID 0000.0001) //     35 z..xwvtsrqonmlkjihgfeedccbbaaaaaaaaaaabbccdeefghijklmnoqrstvwxz..x
(PID.TID 0000.0001) //     34 z..xwvtsrqonmlkjihgfeddcbbbaaa-----aaabbbcddefghijklmnoqrstvwxz..x
(PID.TID 0000.0001) //     33 z..xwvtsrponmlkjihgfeddcbbaaa-------aaabbcddefghijklmnoprstvwxz..x
(PID.TID 0000.0001) //     32 z..xwvtsrponmlkihggfedccbbaaa-------aaabbccdefgghiklmnoprstvwxz..x
(PID.TID 0000.0001) //     31 z..xwvtsrponmlkihggfedccbbaaa-------aaabbccdefgghiklmnoprstvwxz..x
(PID.TID 0000.0001) //     30 z..xwvtsrponmlkihggfedccbbaaa-------aaabbccdefgghiklmnoprstvwxz..x
(PID.TID 0000.0001) //     29 z..xwvtsrponmlkjihgfeddcbbaaa-------aaabbcddefghijklmnoprstvwxz..x
(PID.TID 0000.0001) //     28 z..xwvtsrqonmlkjihgfeddcbbbaaa-----aaabbbcddefghijklmnoqrstvwxz..x
(PID.TID 0000.0001) //     27 z..xwvtsrqonmlkjihgfeedccbbaaaaaaaaaaabbccdeefghijklmnoqrstvwxz..x
(PID.TID 0000.0001) //     26 z..xwvusrqpnmlkjihgffeddcbbbaaaaaaaaabbbcddeffghijklmnpqrsuvwxz..x
(PID.TID 0000.0001) //     25 z..xwvusrqpomlkjihggfeddccbbbbaaaaabbbbccddefgghijklmopqrsuvwxz..x
(PID.TID 0000.0001) //     24 z..ywvusrqponmlkjihgffeddccbbbbbbbbbbbccddeffghijklmnopqrsuvwyz..y
(PID.TID 0000.0001) //     23 z..ywvutrqponmlkjihggfeeddcccbbbbbbbcccddeefgghijklmnopqrtuvwyz..y
(PID.TID 0000.0001) //     22 z..ywvutsqponmlkjiihgffeedddcccccccccdddeeffghiijklmnopqstuvwyz..y
(PID.TID 0000.0001) //     21 z..ywvutsrqponmlkjihhgffeedddddcccdddddeeffghhijklmnopqrstuvwyz..y
(PID.TID 0000.0001) //     20 z..yxvutsrqponmlkjjihhgfffeeedddddddeeefffghhijjklmnopqrstuvxyz..y
(PID.TID 0000.0001) //     19 z..yxwvtsrqponmmlkjjihhggfffeeeeeeeeefffgghhijjklmmnopqrstvwxyz..y
(PID.TID 0000.0001) //     18 z..yxwvutsrqponmllkjjihhgggfffffffffffggghhijjkllmnopqrstuvwxyz..y
(PID.TID 0000.0001) //     17 z..yxwvutsrqponnmlkkjjiihhggggggggggggghhiijjkklmnnopqrstuvwxyz..y
(PID.TID 0000.0001) //     16 z..yxwvutsrrqponnmllkjjiiihhhhhggghhhhhiiijjkllmnnopqrrstuvwxyz..y
(PID.TID 0000.0001) //     15 z..yxwvuutsrqpponnmllkkjjjiiiiihhhiiiiijjjkkllmnnoppqrstuuvwxyz..y
(PID.TID 0000.0001) //     14 z..yxxwvutssrqpponnmmllkkkjjjjjiiijjjjjkkkllmmnnoppqrsstuvwxxyz..y
(PID.TID 0000.0001) //     13 z..yyxwvuutsrrqpponnmmmlllkkkkkkkkkkkkklllmmmnnoppqrrstuuvwxyyz..y
(PID.TID 0000.0001) //     12 z..zyxwvvuttsrrqppoonnnmmmlllllllllllllmmmnnnooppqrrsttuvvwxyzz..z
(PID.TID 0000.0001) //     11 z..zyxwwvuutssrrqqppooonnnmmmmmmmmmmmmmnnnoooppqqrrsstuuvwwxyzz..z
(PID.TID 0000.0001) //     10 z..zyxxwwvuuttssrrqqpppoooonnnnnnnnnnnoooopppqqrrssttuuvwwxxyzz..z
(PID.TID 0000.0001) //      9 z..zyyxxwvvuuttssrrrqqqpppppooooooooopppppqqqrrrssttuuvvwxxyyzz..z
(PID.TID 0000.0001) //      8 +..zyyxxwwvvuuuttsssrrrqqqqqqqpppppqqqqqqqrrrsssttuuuvvwwxxyyz+..z
(PID.TID 0000.0001) //      7 +..zzyyxxwwwvvuuutttssssrrrrrrrrrrrrrrrrrsssstttuuuvvwwwxxyyzz+..z
(PID.TID 0000.0001) //      6 +..zzyyyxxxwwvvvuuuutttttssssssssssssssstttttuuuuvvvwwxxxyyyzz+..z
(PID.TID 0000.0001) //      5 +..zzzyyyxxxwwwwvvvvvuuuuuuutttttttttuuuuuuuvvvvvwwwwxxxyyyzzz+..z
(PID.TID 0000.0001) //      4 +..+zzzyyyyxxxxxwwwwwvvvvvvvvvvvvvvvvvvvvvvvwwwwwxxxxxyyyyzzz++..+
(PID.TID 0000.0001) //      3 +..+zzzzzyyyyyyxxxxxxxwwwwwwwwwwwwwwwwwwwwwxxxxxxxyyyyyyzzzzz++..+
(PID.TID 0000.0001) //      2 +..+++zzzzzzzzyyyyyyyyyyyyxxxxxxxxxxxxxyyyyyyyyyyyyzzzzzzzz++++..+
(PID.TID 0000.0001) //      1 ..................................................................
(PID.TID 0000.0001) //      0 ..................................................................
(PID.TID 0000.0001) //     -1 +..+++++++zzzzzzzzzzzzzzzzzzzzzzzzzzzzzzzzzzzzzzzzzzzzz++++++++..+
(PID.TID 0000.0001) // =======================================================
(PID.TID 0000.0001) // END OF FIELD                                          =
(PID.TID 0000.0001) // =======================================================
(PID.TID 0000.0001) 
(PID.TID 0000.0001) // =======================================================
(PID.TID 0000.0001) // Field hFacW at iteration          0
(PID.TID 0000.0001) // CMIN =          9.000000000000000E-01
(PID.TID 0000.0001) // CMAX =          9.994875976562501E-01
(PID.TID 0000.0001) // CINT =          3.684725839120372E-03
(PID.TID 0000.0001) // SYMBOLS (CMIN->CMAX): -abcdefghijklmnopqrstuvwxyz+
(PID.TID 0000.0001) //                  0.0: .
(PID.TID 0000.0001) // RANGE I (Lo:Hi:Step):(    -1:    64:     1)
(PID.TID 0000.0001) // RANGE J (Lo:Hi:Step):(    64:    -1:    -1)
(PID.TID 0000.0001) // RANGE K (Lo:Hi:Step):(   1:   1:   1)
(PID.TID 0000.0001) // =======================================================
(PID.TID 0000.0001) K =   1
(PID.TID 0000.0001) //                I=8       I=18      I=28      I=38      I=48      I=58
(PID.TID 0000.0001) // |--J--|101234567|901234567|901234567|901234567|901234567|901234567|901234
(PID.TID 0000.0001) //     64 +...++zzzzzzzzyyyyyyyyyyyyyxxxxxxxxxxxxyyyyyyyyyyyyyzzzzzzzz+++...
(PID.TID 0000.0001) //     63 ..................................................................
(PID.TID 0000.0001) //     62 ..................................................................
(PID.TID 0000.0001) //     61 +...+++++++zzzzzzzzzzzzzzzzzzzzzzzzzzzzzzzzzzzzzzzzzzzz++++++++...
(PID.TID 0000.0001) //     60 +...++zzzzzzzzyyyyyyyyyyyyyxxxxxxxxxxxxyyyyyyyyyyyyyzzzzzzzz+++...
(PID.TID 0000.0001) //     59 +...+zzzzzyyyyyxxxxxxxxwwwwwwwwwwwwwwwwwwwwxxxxxxxxyyyyyzzzzz++...
(PID.TID 0000.0001) //     58 +...zzzzyyyxxxxxwwwwwwvvvvvvvvvvvvvvvvvvvvvvwwwwwwxxxxxyyyzzzz+...
(PID.TID 0000.0001) //     57 z...zzyyyxxxxwwwvvvvvuuuuuuuttttttttttuuuuuuuvvvvvwwwxxxxyyyzzz...
(PID.TID 0000.0001) //     56 z...zzyyxxxwwvvvvuuuttttttssssssssssssssttttttuuuvvvvwwxxxyyzzz...
(PID.TID 0000.0001) //     55 z...zyyxxwwwvvuuutttssssrrrrrrrrrrrrrrrrrrsssstttuuuvvwwwxxyyzz...
(PID.TID 0000.0001) //     54 z...zyxxwwvvuuuttsssrrrrqqqqqqppppppqqqqqqrrrrsssttuuuvvwwxxyzz...
(PID.TID 0000.0001) //     53 z...yyxxwvvuuttssrrrqqqpppppoooooooooopppppqqqrrrssttuuvvwxxyyz...
(PID.TID 0000.0001) //     52 z...yxxwwvuuttssrrqqpppoooonnnnnnnnnnnnoooopppqqrrssttuuvwwxxyz...
(PID.TID 0000.0001) //     51 z...yxxwvuuttsrrqqppooonnnmmmmmmmmmmmmmmnnnoooppqqrrsttuuvwxxyz...
(PID.TID 0000.0001) //     50 z...yxwvvuttsrrqppoonnnmmmllllllllllllllmmmnnnooppqrrsttuvvwxyz...
(PID.TID 0000.0001) //     49 y...yxwvuutsrrqppoonnmmlllkkkkkkkkkkkkkklllmmnnooppqrrstuuvwxyy...
(PID.TID 0000.0001) //     48 y...xxwvutssrqpponnmmllkkkjjjjjiiiijjjjjkkkllmmnnoppqrsstuvwxxy...
(PID.TID 0000.0001) //     47 y...xwvvutsrqpponnmllkkjjjiiiiihhhhiiiiijjjkkllmnnoppqrstuvvwxy...
(PID.TID 0000.0001) //     46 y...xwvutsrrqponnmllkjjiiihhhhhgggghhhhhiiijjkllmnnopqrrstuvwxy...
(PID.TID 0000.0001) //     45 y...xwvutsrqpoonmllkjjiihhgggggggggggggghhiijjkllmnoopqrstuvwxy...
(PID.TID 0000.0001) //     44 y...xwvutsrqponmllkjjihhgggffffffffffffggghhijjkllmnopqrstuvwxy...
(PID.TID 0000.0001) //     43 y...xwvtsrqponnmlkjjihhggfffeeeeeeeeeefffgghhijjklmnnopqrstvwxy...
(PID.TID 0000.0001) //     42 y...xwutsrqponmlkjjihhgfffeeeddddddddeeefffghhijjklmnopqrstuwxy...
(PID.TID 0000.0001) //     41 y...xvutsrqponmlkjihhgffeedddddccccdddddeeffghhijklmnopqrstuvxy...
(PID.TID 0000.0001) //     40 y...wvutsrponmlkjiihgffeedddccccccccccdddeeffghiijklmnoprstuvwy...
(PID.TID 0000.0001) //     39 y...wvutrqponmlkjihggfeeddcccbbbbbbbbcccddeefgghijklmnopqrtuvwy...
(PID.TID 0000.0001) //     38 y...wvutrqponmlkjihgffeddcccbbbbbbbbbbcccddeffghijklmnopqrtuvwy...
(PID.TID 0000.0001) //     37 y...wvusrqpomlkjihggfeddccbbbbaaaaaabbbbccddefgghijklmopqrsuvwy...
(PID.TID 0000.0001) //     36 x...wvusrqpnmlkjihgffeddccbbaaaaaaaaaabbccddeffghijklmnpqrsuvwx...
(PID.TID 0000.0001) //     35 x...wvtsrqonmlkjihgfeedccbbaaaaaaaaaaaabbccdeefghijklmnoqrstvwx...
(PID.TID 0000.0001) //     34 x...wvtsrqonmlkjihgfeddcbbbaaa------aaabbbcddefghijklmnoqrstvwx...
(PID.TID 0000.0001) //     33 x...wvtsrponmlkjihgfeddcbbaaa--------aaabbcddefghijklmnoprstvwx...
(PID.TID 0000.0001) //     32 x...wvtsrponmlkihggfedccbbaaa--------aaabbccdefgghiklmnoprstvwx...
(PID.TID 0000.0001) //     31 x...wvtsrponmlkihggfedccbbaaa--------aaabbccdefgghiklmnoprstvwx...
(PID.TID 0000.0001) //     30 x...wvtsrponmlkihggfedccbbaaa--------aaabbccdefgghiklmnoprstvwx...
(PID.TID 0000.0001) //     29 x...wvtsrponmlkjihgfeddcbbaaa--------aaabbcddefghijklmnoprstvwx...
(PID.TID 0000.0001) //     28 x...wvtsrqonmlkjihgfeddcbbbaaa------aaabbbcddefghijklmnoqrstvwx...
(PID.TID 0000.0001) //     27 x...wvtsrqonmlkjihgfeedccbbaaaaaaaaaaaabbccdeefghijklmnoqrstvwx...
(PID.TID 0000.0001) //     26 x...wvusrqpnmlkjihgffeddccbbaaaaaaaaaabbccddeffghijklmnpqrsuvwx...
(PID.TID 0000.0001) //     25 y...wvusrqpomlkjihggfeddccbbbbaaaaaabbbbccddefgghijklmopqrsuvwy...
(PID.TID 0000.0001) //     24 y...wvutrqponmlkjihgffeddcccbbbbbbbbbbcccddeffghijklmnopqrtuvwy...
(PID.TID 0000.0001) //     23 y...wvutrqponmlkjihggfeeddcccbbbbbbbbcccddeefgghijklmnopqrtuvwy...
(PID.TID 0000.0001) //     22 y...wvutsrponmlkjiihgffeedddccccccccccdddeeffghiijklmnoprstuvwy...
(PID.TID 0000.0001) //     21 y...xvutsrqponmlkjihhgffeedddddccccdddddeeffghhijklmnopqrstuvxy...
(PID.TID 0000.0001) //     20 y...xwutsrqponmlkjjihhgfffeeeddddddddeeefffghhijjklmnopqrstuwxy...
(PID.TID 0000.0001) //     19 y...xwvtsrqponnmlkjjihhggfffeeeeeeeeeefffgghhijjklmnnopqrstvwxy...
(PID.TID 0000.0001) //     18 y...xwvutsrqponmllkjjihhgggffffffffffffggghhijjkllmnopqrstuvwxy...
(PID.TID 0000.0001) //     17 y...xwvutsrqpoonmllkjjiihhgggggggggggggghhiijjkllmnoopqrstuvwxy...
(PID.TID 0000.0001) //     16 y...xwvutsrrqponnmllkjjiiihhhhhgggghhhhhiiijjkllmnnopqrrstuvwxy...
(PID.TID 0000.0001) //     15 y...xwvvutsrqpponnmllkkjjjiiiiihhhhiiiiijjjkkllmnnoppqrstuvvwxy...
(PID.TID 0000.0001) //     14 y...xxwvutssrqpponnmmllkkkjjjjjiiiijjjjjkkkllmmnnoppqrsstuvwxxy...
(PID.TID 0000.0001) //     13 y...yxwvuutsrrqppoonnmmlllkkkkkkkkkkkkkklllmmnnooppqrrstuuvwxyy...
(PID.TID 0000.0001) //     12 z...yxwvvuttsrrqppoonnnmmmllllllllllllllmmmnnnooppqrrsttuvvwxyz...
(PID.TID 0000.0001) //     11 z...yxxwvuuttsrrqqppooonnnmmmmmmmmmmmmmmnnnoooppqqrrsttuuvwxxyz...
(PID.TID 0000.0001) //     10 z...yxxwwvuuttssrrqqpppoooonnnnnnnnnnnnoooopppqqrrssttuuvwwxxyz...
(PID.TID 0000.0001) //      9 z...yyxxwvvuuttssrrrqqqpppppoooooooooopppppqqqrrrssttuuvvwxxyyz...
(PID.TID 0000.0001) //      8 z...zyxxwwvvuuuttsssrrrrqqqqqqppppppqqqqqqrrrrsssttuuuvvwwxxyzz...
(PID.TID 0000.0001) //      7 z...zyyxxwwwvvuuutttssssrrrrrrrrrrrrrrrrrrsssstttuuuvvwwwxxyyzz...
(PID.TID 0000.0001) //      6 z...zzyyxxxwwvvvvuuuttttttssssssssssssssttttttuuuvvvvwwxxxyyzzz...
(PID.TID 0000.0001) //      5 z...zzyyyxxxxwwwvvvvvuuuuuuuttttttttttuuuuuuuvvvvvwwwxxxxyyyzzz...
(PID.TID 0000.0001) //      4 +...zzzzyyyxxxxxwwwwwwvvvvvvvvvvvvvvvvvvvvvvwwwwwwxxxxxyyyzzzz+...
(PID.TID 0000.0001) //      3 +...+zzzzzyyyyyxxxxxxxxwwwwwwwwwwwwwwwwwwwwxxxxxxxxyyyyyzzzzz++...
(PID.TID 0000.0001) //      2 +...++zzzzzzzzyyyyyyyyyyyyyxxxxxxxxxxxxyyyyyyyyyyyyyzzzzzzzz+++...
(PID.TID 0000.0001) //      1 ..................................................................
(PID.TID 0000.0001) //      0 ..................................................................
(PID.TID 0000.0001) //     -1 +...+++++++zzzzzzzzzzzzzzzzzzzzzzzzzzzzzzzzzzzzzzzzzzzz++++++++...
(PID.TID 0000.0001) // =======================================================
(PID.TID 0000.0001) // END OF FIELD                                          =
(PID.TID 0000.0001) // =======================================================
(PID.TID 0000.0001) 
(PID.TID 0000.0001) // =======================================================
(PID.TID 0000.0001) // Field hFacS at iteration          0
(PID.TID 0000.0001) // CMIN =          9.000000000000000E-01
(PID.TID 0000.0001) // CMAX =          9.994875976562501E-01
(PID.TID 0000.0001) // CINT =          3.684725839120372E-03
(PID.TID 0000.0001) // SYMBOLS (CMIN->CMAX): -abcdefghijklmnopqrstuvwxyz+
(PID.TID 0000.0001) //                  0.0: .
(PID.TID 0000.0001) // RANGE I (Lo:Hi:Step):(    -1:    64:     1)
(PID.TID 0000.0001) // RANGE J (Lo:Hi:Step):(    64:    -1:    -1)
(PID.TID 0000.0001) // RANGE K (Lo:Hi:Step):(   1:   1:   1)
(PID.TID 0000.0001) // =======================================================
(PID.TID 0000.0001) K =   1
(PID.TID 0000.0001) //                I=8       I=18      I=28      I=38      I=48      I=58
(PID.TID 0000.0001) // |--J--|101234567|901234567|901234567|901234567|901234567|901234567|901234
(PID.TID 0000.0001) //     64 ..................................................................
(PID.TID 0000.0001) //     63 ..................................................................
(PID.TID 0000.0001) //     62 ..................................................................
(PID.TID 0000.0001) //     61 +..+++zzzzzzzzyyyyyyyyyyyyyxxxxxxxxxxxyyyyyyyyyyyyyzzzzzzzz++++..+
(PID.TID 0000.0001) //     60 +..++zzzzzyyyyyxxxxxxxxwwwwwwwwwwwwwwwwwwwxxxxxxxxyyyyyzzzzz+++..+
(PID.TID 0000.0001) //     59 +..+zzzzyyyxxxxxwwwwwwvvvvvvvvvvvvvvvvvvvvvwwwwwwxxxxxyyyzzzz++..+
(PID.TID 0000.0001) //     58 +..zzzyyyxxxxwwwvvvvvuuuuuuutttttttttuuuuuuuvvvvvwwwxxxxyyyzzz+..z
(PID.TID 0000.0001) //     57 +..zzzyyxxxwwvvvvuuuttttttsssssssssssssttttttuuuvvvvwwxxxyyzzz+..z
(PID.TID 0000.0001) //     56 +..zzyyxxwwwvvuuutttssssrrrrrrrrrrrrrrrrrsssstttuuuvvwwwxxyyzz+..z
(PID.TID 0000.0001) //     55 +..zzyxxwwvvuuuttsssrrrrqqqqqqpppppqqqqqqrrrrsssttuuuvvwwxxyzz+..z
(PID.TID 0000.0001) //     54 +..zyyxxwvvuuttssrrrqqqpppppooooooooopppppqqqrrrssttuuvvwxxyyz+..z
(PID.TID 0000.0001) //     53 z..zyxxwwvuuttssrrqqpppoooonnnnnnnnnnnoooopppqqrrssttuuvwwxxyzz..z
(PID.TID 0000.0001) //     52 z..zyxxwvuuttsrrqqppooonnnmmmmmmmmmmmmmnnnoooppqqrrsttuuvwxxyzz..z
(PID.TID 0000.0001) //     51 z..zyxwvvuttsrrqppoonnnmmmlllllllllllllmmmnnnooppqrrsttuvvwxyzz..z
(PID.TID 0000.0001) //     50 z..yyxwvuutsrrqppoonnmmlllkkkkkkkkkkkkklllmmnnooppqrrstuuvwxyyz..y
(PID.TID 0000.0001) //     49 z..yxxwvutssrqpponnmmllkkkjjjjjiiijjjjjkkkllmmnnoppqrsstuvwxxyz..y
(PID.TID 0000.0001) //     48 z..yxwvvutsrqpponnmllkkjjjiiiiihhhiiiiijjjkkllmnnoppqrstuvvwxyz..y
(PID.TID 0000.0001) //     47 z..yxwvutsrrqponnmllkjjiiihhhhhggghhhhhiiijjkllmnnopqrrstuvwxyz..y
(PID.TID 0000.0001) //     46 z..yxwvutsrqpoonmllkjjiihhggggggggggggghhiijjkllmnoopqrstuvwxyz..y
(PID.TID 0000.0001) //     45 z..yxwvutsrqponmllkjjihhgggfffffffffffggghhijjkllmnopqrstuvwxyz..y
(PID.TID 0000.0001) //     44 z..yxwvtsrqponnmlkjjihhggfffeeeeeeeeefffgghhijjklmnnopqrstvwxyz..y
(PID.TID 0000.0001) //     43 z..yxwutsrqponmlkjjihhgfffeeedddddddeeefffghhijjklmnopqrstuwxyz..y
(PID.TID 0000.0001) //     42 z..yxvutsrqponmlkjihhgffeedddddcccdddddeeffghhijklmnopqrstuvxyz..y
(PID.TID 0000.0001) //     41 z..ywvutsrponmlkjiihgffeedddcccccccccdddeeffghiijklmnoprstuvwyz..y
(PID.TID 0000.0001) //     40 z..ywvutrqponmlkjihggfeeddcccbbbbbbbcccddeefgghijklmnopqrtuvwyz..y
(PID.TID 0000.0001) //     39 z..ywvutrqponmlkjihgffeddcccbbbbbbbbbcccddeffghijklmnopqrtuvwyz..y
(PID.TID 0000.0001) //     38 z..ywvusrqpomlkjihggfeddccbbbbaaaaabbbbccddefgghijklmopqrsuvwyz..y
(PID.TID 0000.0001) //     37 z..xwvusrqpnmlkjihgffeddccbbaaaaaaaaabbccddeffghijklmnpqrsuvwxz..x
(PID.TID 0000.0001) //     36 z..xwvtsrqonmlkjihgfeedccbbaaaaaaaaaaabbccdeefghijklmnoqrstvwxz..x
(PID.TID 0000.0001) //     35 z..xwvtsrqonmlkjihgfeddcbbbaaa-----aaabbbcddefghijklmnoqrstvwxz..x
(PID.TID 0000.0001) //     34 z..xwvtsrponmlkjihgfeddcbbaaa-------aaabbcddefghijklmnoprstvwxz..x
(PID.TID 0000.0001) //     33 z..xwvtsrponmlkihggfedccbbaaa-------aaabbccdefgghiklmnoprstvwxz..x
(PID.TID 0000.0001) //     32 z..xwvtsrponmlkihggfedccbbaaa-------aaabbccdefgghiklmnoprstvwxz..x
(PID.TID 0000.0001) //     31 z..xwvtsrponmlkihggfedccbbaaa-------aaabbccdefgghiklmnoprstvwxz..x
(PID.TID 0000.0001) //     30 z..xwvtsrponmlkihggfedccbbaaa-------aaabbccdefgghiklmnoprstvwxz..x
(PID.TID 0000.0001) //     29 z..xwvtsrponmlkjihgfeddcbbaaa-------aaabbcddefghijklmnoprstvwxz..x
(PID.TID 0000.0001) //     28 z..xwvtsrqonmlkjihgfeddcbbbaaa-----aaabbbcddefghijklmnoqrstvwxz..x
(PID.TID 0000.0001) //     27 z..xwvtsrqonmlkjihgfeedccbbaaaaaaaaaaabbccdeefghijklmnoqrstvwxz..x
(PID.TID 0000.0001) //     26 z..xwvusrqpnmlkjihgffeddccbbaaaaaaaaabbccddeffghijklmnpqrsuvwxz..x
(PID.TID 0000.0001) //     25 z..ywvusrqpomlkjihggfeddccbbbbaaaaabbbbccddefgghijklmopqrsuvwyz..y
(PID.TID 0000.0001) //     24 z..ywvutrqponmlkjihgffeddcccbbbbbbbbbcccddeffghijklmnopqrtuvwyz..y
(PID.TID 0000.0001) //     23 z..ywvutrqponmlkjihggfeeddcccbbbbbbbcccddeefgghijklmnopqrtuvwyz..y
(PID.TID 0000.0001) //     22 z..ywvutsrponmlkjiihgffeedddcccccccccdddeeffghiijklmnoprstuvwyz..y
(PID.TID 0000.0001) //     21 z..yxvutsrqponmlkjihhgffeedddddcccdddddeeffghhijklmnopqrstuvxyz..y
(PID.TID 0000.0001) //     20 z..yxwutsrqponmlkjjihhgfffeeedddddddeeefffghhijjklmnopqrstuwxyz..y
(PID.TID 0000.0001) //     19 z..yxwvtsrqponnmlkjjihhggfffeeeeeeeeefffgghhijjklmnnopqrstvwxyz..y
(PID.TID 0000.0001) //     18 z..yxwvutsrqponmllkjjihhgggfffffffffffggghhijjkllmnopqrstuvwxyz..y
(PID.TID 0000.0001) //     17 z..yxwvutsrqpoonmllkjjiihhggggggggggggghhiijjkllmnoopqrstuvwxyz..y
(PID.TID 0000.0001) //     16 z..yxwvutsrrqponnmllkjjiiihhhhhggghhhhhiiijjkllmnnopqrrstuvwxyz..y
(PID.TID 0000.0001) //     15 z..yxwvvutsrqpponnmllkkjjjiiiiihhhiiiiijjjkkllmnnoppqrstuvvwxyz..y
(PID.TID 0000.0001) //     14 z..yxxwvutssrqpponnmmllkkkjjjjjiiijjjjjkkkllmmnnoppqrsstuvwxxyz..y
(PID.TID 0000.0001) //     13 z..yyxwvuutsrrqppoonnmmlllkkkkkkkkkkkkklllmmnnooppqrrstuuvwxyyz..y
(PID.TID 0000.0001) //     12 z..zyxwvvuttsrrqppoonnnmmmlllllllllllllmmmnnnooppqrrsttuvvwxyzz..z
(PID.TID 0000.0001) //     11 z..zyxxwvuuttsrrqqppooonnnmmmmmmmmmmmmmnnnoooppqqrrsttuuvwxxyzz..z
(PID.TID 0000.0001) //     10 z..zyxxwwvuuttssrrqqpppoooonnnnnnnnnnnoooopppqqrrssttuuvwwxxyzz..z
(PID.TID 0000.0001) //      9 +..zyyxxwvvuuttssrrrqqqpppppooooooooopppppqqqrrrssttuuvvwxxyyz+..z
(PID.TID 0000.0001) //      8 +..zzyxxwwvvuuuttsssrrrrqqqqqqpppppqqqqqqrrrrsssttuuuvvwwxxyzz+..z
(PID.TID 0000.0001) //      7 +..zzyyxxwwwvvuuutttssssrrrrrrrrrrrrrrrrrsssstttuuuvvwwwxxyyzz+..z
(PID.TID 0000.0001) //      6 +..zzzyyxxxwwvvvvuuuttttttsssssssssssssttttttuuuvvvvwwxxxyyzzz+..z
(PID.TID 0000.0001) //      5 +..zzzyyyxxxxwwwvvvvvuuuuuuutttttttttuuuuuuuvvvvvwwwxxxxyyyzzz+..z
(PID.TID 0000.0001) //      4 +..+zzzzyyyxxxxxwwwwwwvvvvvvvvvvvvvvvvvvvvvwwwwwwxxxxxyyyzzzz++..+
(PID.TID 0000.0001) //      3 +..++zzzzzyyyyyxxxxxxxxwwwwwwwwwwwwwwwwwwwxxxxxxxxyyyyyzzzzz+++..+
(PID.TID 0000.0001) //      2 ..................................................................
(PID.TID 0000.0001) //      1 ..................................................................
(PID.TID 0000.0001) //      0 ..................................................................
(PID.TID 0000.0001) //     -1 +..+++zzzzzzzzyyyyyyyyyyyyyxxxxxxxxxxxyyyyyyyyyyyyyzzzzzzzz++++..+
(PID.TID 0000.0001) // =======================================================
(PID.TID 0000.0001) // END OF FIELD                                          =
(PID.TID 0000.0001) // =======================================================
(PID.TID 0000.0001) 
(PID.TID 0000.0001) GAD_INIT_FIXED: GAD_OlMinSize=  0  0  1
(PID.TID 0000.0001) 
(PID.TID 0000.0001) // ===================================
(PID.TID 0000.0001) // GAD parameters :
(PID.TID 0000.0001) // ===================================
(PID.TID 0000.0001) tempAdvScheme =   /* Temp. Horiz.Advection scheme selector */
(PID.TID 0000.0001)                       2
(PID.TID 0000.0001)     ;
(PID.TID 0000.0001) tempVertAdvScheme =   /* Temp. Vert. Advection scheme selector */
(PID.TID 0000.0001)                       2
(PID.TID 0000.0001)     ;
(PID.TID 0000.0001) tempMultiDimAdvec =   /* use Muti-Dim Advec method for Temp */
(PID.TID 0000.0001)                   F
(PID.TID 0000.0001)     ;
(PID.TID 0000.0001) tempSOM_Advection = /* use 2nd Order Moment Advection for Temp */
(PID.TID 0000.0001)                   F
(PID.TID 0000.0001)     ;
(PID.TID 0000.0001) AdamsBashforthGt = /* apply Adams-Bashforth extrapolation on Gt */
(PID.TID 0000.0001)                   F
(PID.TID 0000.0001)     ;
(PID.TID 0000.0001) AdamsBashforth_T = /* apply Adams-Bashforth extrapolation on Temp */
(PID.TID 0000.0001)                   F
(PID.TID 0000.0001)     ;
(PID.TID 0000.0001) saltAdvScheme =   /* Salt. Horiz.advection scheme selector */
(PID.TID 0000.0001)                       2
(PID.TID 0000.0001)     ;
(PID.TID 0000.0001) saltVertAdvScheme =   /* Salt. Vert. Advection scheme selector */
(PID.TID 0000.0001)                       2
(PID.TID 0000.0001)     ;
(PID.TID 0000.0001) saltMultiDimAdvec =   /* use Muti-Dim Advec method for Salt */
(PID.TID 0000.0001)                   F
(PID.TID 0000.0001)     ;
(PID.TID 0000.0001) saltSOM_Advection = /* use 2nd Order Moment Advection for Salt */
(PID.TID 0000.0001)                   F
(PID.TID 0000.0001)     ;
(PID.TID 0000.0001) AdamsBashforthGs = /* apply Adams-Bashforth extrapolation on Gs */
(PID.TID 0000.0001)                   F
(PID.TID 0000.0001)     ;
(PID.TID 0000.0001) AdamsBashforth_S = /* apply Adams-Bashforth extrapolation on Salt */
(PID.TID 0000.0001)                   F
(PID.TID 0000.0001)     ;
(PID.TID 0000.0001) // ===================================
(PID.TID 0000.0001) %MON fCori_max                    =   1.1210000000000E-04
(PID.TID 0000.0001) %MON fCori_min                    =   9.9900000000000E-05
(PID.TID 0000.0001) %MON fCori_mean                   =   1.0600000000000E-04
(PID.TID 0000.0001) %MON fCori_sd                     =   3.5791060336346E-06
(PID.TID 0000.0001) %MON fCoriG_max                   =   1.1200000000000E-04
(PID.TID 0000.0001) %MON fCoriG_min                   =   9.9800000000000E-05
(PID.TID 0000.0001) %MON fCoriG_mean                  =   1.0590000000000E-04
(PID.TID 0000.0001) %MON fCoriG_sd                    =   3.5791060336346E-06
(PID.TID 0000.0001) %MON fCoriCos_max                 =   0.0000000000000E+00
(PID.TID 0000.0001) %MON fCoriCos_min                 =   0.0000000000000E+00
(PID.TID 0000.0001) %MON fCoriCos_mean                =   0.0000000000000E+00
(PID.TID 0000.0001) %MON fCoriCos_sd                  =   0.0000000000000E+00
(PID.TID 0000.0001) INI_CG2D: CG2D normalisation factor =  2.0010253300690306E-04
(PID.TID 0000.0001) 
(PID.TID 0000.0001) // =======================================================
(PID.TID 0000.0001) // Model configuration
(PID.TID 0000.0001) // =======================================================
(PID.TID 0000.0001) //
(PID.TID 0000.0001) // "Physical" paramters ( PARM01 in namelist )
(PID.TID 0000.0001) //
(PID.TID 0000.0001) buoyancyRelation = /* Type of relation to get Buoyancy */
(PID.TID 0000.0001)               'OCEANIC'
(PID.TID 0000.0001)     ;
(PID.TID 0000.0001) fluidIsAir   =  /* fluid major constituent is Air */
(PID.TID 0000.0001)                   F
(PID.TID 0000.0001)     ;
(PID.TID 0000.0001) fluidIsWater =  /* fluid major constituent is Water */
(PID.TID 0000.0001)                   T
(PID.TID 0000.0001)     ;
(PID.TID 0000.0001) usingPCoords =  /* use p (or p*) vertical coordinate */
(PID.TID 0000.0001)                   F
(PID.TID 0000.0001)     ;
(PID.TID 0000.0001) usingZCoords =  /* use z (or z*) vertical coordinate */
(PID.TID 0000.0001)                   T
(PID.TID 0000.0001)     ;
(PID.TID 0000.0001) tRef =   /* Reference temperature profile ( oC or K ) */
(PID.TID 0000.0001)                 2.000000000000000E+01       /* K =  1 */
(PID.TID 0000.0001)     ;
(PID.TID 0000.0001) sRef =   /* Reference salinity profile ( psu ) */
(PID.TID 0000.0001)                 3.000000000000000E+01       /* K =  1 */
(PID.TID 0000.0001)     ;
(PID.TID 0000.0001) useStrainTensionVisc= /* Use StrainTension Form of Viscous Operator */
(PID.TID 0000.0001)                   F
(PID.TID 0000.0001)     ;
(PID.TID 0000.0001) useVariableVisc = /* Use variable horizontal viscosity */
(PID.TID 0000.0001)                   F
(PID.TID 0000.0001)     ;
(PID.TID 0000.0001) useHarmonicVisc = /* Use harmonic horizontal viscosity */
(PID.TID 0000.0001)                   T
(PID.TID 0000.0001)     ;
(PID.TID 0000.0001) useBiharmonicVisc= /* Use biharmonic horiz.  viscosity */
(PID.TID 0000.0001)                   F
(PID.TID 0000.0001)     ;
(PID.TID 0000.0001) useSmag3D = /* Use isotropic 3-D Smagorinsky viscosity */
(PID.TID 0000.0001)                   F
(PID.TID 0000.0001)     ;
(PID.TID 0000.0001) viscAh  =   /* Lateral harmonic viscosity ( m^2/s ) */
(PID.TID 0000.0001)                 4.000000000000000E+02
(PID.TID 0000.0001)     ;
(PID.TID 0000.0001) viscA4  =   /* Lateral biharmonic viscosity ( m^4/s ) */
(PID.TID 0000.0001)                 0.000000000000000E+00
(PID.TID 0000.0001)     ;
(PID.TID 0000.0001) no_slip_sides =  /* Viscous BCs: No-slip sides */
(PID.TID 0000.0001)                   T
(PID.TID 0000.0001)     ;
(PID.TID 0000.0001) sideDragFactor = /* side-drag scaling factor (non-dim) */
(PID.TID 0000.0001)                 2.000000000000000E+00
(PID.TID 0000.0001)     ;
(PID.TID 0000.0001) viscArNr = /* vertical profile of vertical viscosity ( m^2/s )*/
(PID.TID 0000.0001)                 0.000000000000000E+00       /* K =  1 */
(PID.TID 0000.0001)     ;
(PID.TID 0000.0001) no_slip_bottom =  /* Viscous BCs: No-slip bottom */
(PID.TID 0000.0001)                   T
(PID.TID 0000.0001)     ;
(PID.TID 0000.0001) bottomVisc_pCell = /* Partial-cell in bottom Visc. BC */
(PID.TID 0000.0001)                   F
(PID.TID 0000.0001)     ;
(PID.TID 0000.0001) bottomDragLinear = /* linear bottom-drag coefficient ( m/s ) */
(PID.TID 0000.0001)                 0.000000000000000E+00
(PID.TID 0000.0001)     ;
(PID.TID 0000.0001) bottomDragQuadratic = /* quadratic bottom-drag coefficient (-) */
(PID.TID 0000.0001)                 0.000000000000000E+00
(PID.TID 0000.0001)     ;
(PID.TID 0000.0001) selectBotDragQuadr = /* select quadratic bottom drag options */
(PID.TID 0000.0001)                      -1
(PID.TID 0000.0001)     ;
(PID.TID 0000.0001) diffKhT =   /* Laplacian diffusion of heat laterally ( m^2/s ) */
(PID.TID 0000.0001)                 0.000000000000000E+00
(PID.TID 0000.0001)     ;
(PID.TID 0000.0001) diffK4T =   /* Biharmonic diffusion of heat laterally ( m^4/s ) */
(PID.TID 0000.0001)                 0.000000000000000E+00
(PID.TID 0000.0001)     ;
(PID.TID 0000.0001) diffKhS =   /* Laplacian diffusion of salt laterally ( m^2/s ) */
(PID.TID 0000.0001)                 0.000000000000000E+00
(PID.TID 0000.0001)     ;
(PID.TID 0000.0001) diffK4S =   /* Biharmonic diffusion of salt laterally ( m^4/s ) */
(PID.TID 0000.0001)                 0.000000000000000E+00
(PID.TID 0000.0001)     ;
(PID.TID 0000.0001) diffKrNrT = /* vertical profile of vertical diffusion of Temp ( m^2/s )*/
(PID.TID 0000.0001)                 0.000000000000000E+00       /* K =  1 */
(PID.TID 0000.0001)     ;
(PID.TID 0000.0001) diffKrNrS = /* vertical profile of vertical diffusion of Salt ( m^2/s )*/
(PID.TID 0000.0001)                 0.000000000000000E+00       /* K =  1 */
(PID.TID 0000.0001)     ;
(PID.TID 0000.0001) diffKrBL79surf = /* Surface diffusion for Bryan and Lewis 79 ( m^2/s ) */
(PID.TID 0000.0001)                 0.000000000000000E+00
(PID.TID 0000.0001)     ;
(PID.TID 0000.0001) diffKrBL79deep = /* Deep diffusion for Bryan and Lewis 1979 ( m^2/s ) */
(PID.TID 0000.0001)                 0.000000000000000E+00
(PID.TID 0000.0001)     ;
(PID.TID 0000.0001) diffKrBL79scl = /* Depth scale for Bryan and Lewis 1979 ( m ) */
(PID.TID 0000.0001)                 2.000000000000000E+02
(PID.TID 0000.0001)     ;
(PID.TID 0000.0001) diffKrBL79Ho = /* Turning depth for Bryan and Lewis 1979 ( m ) */
(PID.TID 0000.0001)                -2.000000000000000E+03
(PID.TID 0000.0001)     ;
(PID.TID 0000.0001) ivdc_kappa = /* Implicit Vertical Diffusivity for Convection ( m^2/s) */
(PID.TID 0000.0001)                 0.000000000000000E+00
(PID.TID 0000.0001)     ;
(PID.TID 0000.0001) hMixCriteria=  /* Criteria for mixed-layer diagnostic */
(PID.TID 0000.0001)                -8.000000000000000E-01
(PID.TID 0000.0001)     ;
(PID.TID 0000.0001) dRhoSmall =  /* Parameter for mixed-layer diagnostic */
(PID.TID 0000.0001)                 1.000000000000000E-06
(PID.TID 0000.0001)     ;
(PID.TID 0000.0001) hMixSmooth=  /* Smoothing parameter for mixed-layer diagnostic */
(PID.TID 0000.0001)                 0.000000000000000E+00
(PID.TID 0000.0001)     ;
(PID.TID 0000.0001) eosType =  /* Type of Equation of State */
(PID.TID 0000.0001)               'LINEAR'
(PID.TID 0000.0001)     ;
(PID.TID 0000.0001) tAlpha = /* Linear EOS thermal expansion coefficient ( 1/oC ) */
(PID.TID 0000.0001)                 2.000000000000000E-04
(PID.TID 0000.0001)     ;
(PID.TID 0000.0001) sBeta  = /* Linear EOS haline contraction coefficient ( 1/psu ) */
(PID.TID 0000.0001)                 7.400000000000000E-04
(PID.TID 0000.0001)     ;
(PID.TID 0000.0001) rhoNil    = /* Reference density for Linear EOS ( kg/m^3 ) */
(PID.TID 0000.0001)                 9.998000000000000E+02
(PID.TID 0000.0001)     ;
(PID.TID 0000.0001) selectP_inEOS_Zc = /* select pressure to use in EOS (0,1,2,3) */
(PID.TID 0000.0001)                       0
(PID.TID 0000.0001)     0= -g*rhoConst*z ; 1= pRef (from tRef,sRef); 2= Hyd P ; 3= Hyd+NH P
(PID.TID 0000.0001)     ;
(PID.TID 0000.0001) surf_pRef = /* Surface reference pressure ( Pa ) */
(PID.TID 0000.0001)                 1.013250000000000E+05
(PID.TID 0000.0001)     ;
(PID.TID 0000.0001) HeatCapacity_Cp =  /* Specific heat capacity ( J/kg/K ) */
(PID.TID 0000.0001)                 3.994000000000000E+03
(PID.TID 0000.0001)     ;
(PID.TID 0000.0001) celsius2K = /* 0 degree Celsius converted to Kelvin ( K ) */
(PID.TID 0000.0001)                 2.731500000000000E+02
(PID.TID 0000.0001)     ;
(PID.TID 0000.0001) rhoConst  = /* Reference density (Boussinesq)  ( kg/m^3 ) */
(PID.TID 0000.0001)                 1.000000000000000E+03
(PID.TID 0000.0001)     ;
(PID.TID 0000.0001) rhoFacC = /* normalized Reference density @ cell-Center (-) */
(PID.TID 0000.0001)                 1.000000000000000E+00       /* K =  1 */
(PID.TID 0000.0001)     ;
(PID.TID 0000.0001) rhoFacF = /* normalized Reference density @ W-Interface (-) */
(PID.TID 0000.0001)     2 @  1.000000000000000E+00              /* K =  1:  2 */
(PID.TID 0000.0001)     ;
(PID.TID 0000.0001) rhoConstFresh = /* Fresh-water reference density ( kg/m^3 ) */
(PID.TID 0000.0001)                 1.000000000000000E+03
(PID.TID 0000.0001)     ;
(PID.TID 0000.0001) gravity =   /* Gravitational acceleration ( m/s^2 ) */
(PID.TID 0000.0001)                 9.810000000000000E+00
(PID.TID 0000.0001)     ;
(PID.TID 0000.0001) gBaro =   /* Barotropic gravity ( m/s^2 ) */
(PID.TID 0000.0001)                 9.810000000000000E+00
(PID.TID 0000.0001)     ;
(PID.TID 0000.0001) gravFacC = /* gravity factor (vs surf.) @ cell-Center (-) */
(PID.TID 0000.0001)                 1.000000000000000E+00       /* K =  1 */
(PID.TID 0000.0001)     ;
(PID.TID 0000.0001) gravFacF = /* gravity factor (vs surf.) @ W-Interface (-) */
(PID.TID 0000.0001)     2 @  1.000000000000000E+00              /* K =  1:  2 */
(PID.TID 0000.0001)     ;
(PID.TID 0000.0001) rotationPeriod =   /* Rotation Period ( s ) */
(PID.TID 0000.0001)                 8.616400000000000E+04
(PID.TID 0000.0001)     ;
(PID.TID 0000.0001) omega =   /* Angular velocity ( rad/s ) */
(PID.TID 0000.0001)                 7.292123516990375E-05
(PID.TID 0000.0001)     ;
(PID.TID 0000.0001) f0 =   /* Reference coriolis parameter ( 1/s ) */
(PID.TID 0000.0001)                 1.000000000000000E-04
(PID.TID 0000.0001)     ;
(PID.TID 0000.0001) beta =   /* Beta ( 1/(m.s) ) */
(PID.TID 0000.0001)                 9.999999999999999E-12
(PID.TID 0000.0001)     ;
(PID.TID 0000.0001) fPrime =   /* Second coriolis parameter ( 1/s ) */
(PID.TID 0000.0001)                 0.000000000000000E+00
(PID.TID 0000.0001)     ;
(PID.TID 0000.0001) rigidLid =   /* Rigid lid on/off flag */
(PID.TID 0000.0001)                   F
(PID.TID 0000.0001)     ;
(PID.TID 0000.0001) implicitFreeSurface =   /* Implicit free surface on/off flag */
(PID.TID 0000.0001)                   T
(PID.TID 0000.0001)     ;
(PID.TID 0000.0001) freeSurfFac =   /* Implicit free surface factor */
(PID.TID 0000.0001)                 1.000000000000000E+00
(PID.TID 0000.0001)     ;
(PID.TID 0000.0001) implicSurfPress =  /* Surface Pressure implicit factor (0-1)*/
(PID.TID 0000.0001)                 1.000000000000000E+00
(PID.TID 0000.0001)     ;
(PID.TID 0000.0001) implicDiv2DFlow =  /* Barot. Flow Div. implicit factor (0-1)*/
(PID.TID 0000.0001)                 1.000000000000000E+00
(PID.TID 0000.0001)     ;
(PID.TID 0000.0001) uniformLin_PhiSurf = /* use uniform Bo_surf on/off flag*/
(PID.TID 0000.0001)                   T
(PID.TID 0000.0001)     ;
(PID.TID 0000.0001) uniformFreeSurfLev = /* free-surface level-index is uniform */
(PID.TID 0000.0001)                   T
(PID.TID 0000.0001)     ;
(PID.TID 0000.0001) hFacMin =   /* minimum partial cell factor (hFac) */
(PID.TID 0000.0001)                 1.000000000000000E-01
(PID.TID 0000.0001)     ;
(PID.TID 0000.0001) hFacMinDr = /* minimum partial cell thickness ( m) */
(PID.TID 0000.0001)                 0.000000000000000E+00
(PID.TID 0000.0001)     ;
(PID.TID 0000.0001) exactConserv =  /* Exact Volume Conservation on/off flag*/
(PID.TID 0000.0001)                   F
(PID.TID 0000.0001)     ;
(PID.TID 0000.0001) linFSConserveTr = /* Tracer correction for Lin Free Surface on/off flag*/
(PID.TID 0000.0001)                   F
(PID.TID 0000.0001)     ;
(PID.TID 0000.0001) nonlinFreeSurf = /* Non-linear Free Surf. options (-1,0,1,2,3)*/
(PID.TID 0000.0001)                       0
(PID.TID 0000.0001)      -1,0= Off ; 1,2,3= On, 2=+rescale gU,gV, 3=+update cg2d solv.
(PID.TID 0000.0001)     ;
(PID.TID 0000.0001) hFacInf =   /* lower threshold for hFac (nonlinFreeSurf only)*/
(PID.TID 0000.0001)                 2.000000000000000E-01
(PID.TID 0000.0001)     ;
(PID.TID 0000.0001) hFacSup =   /* upper threshold for hFac (nonlinFreeSurf only)*/
(PID.TID 0000.0001)                 2.000000000000000E+00
(PID.TID 0000.0001)     ;
(PID.TID 0000.0001) select_rStar = /* r* Vertical coord. options (=0 r coord.; >0 uses r*)*/
(PID.TID 0000.0001)                       0
(PID.TID 0000.0001)     ;
(PID.TID 0000.0001) useRealFreshWaterFlux = /* Real Fresh Water Flux on/off flag*/
(PID.TID 0000.0001)                   F
(PID.TID 0000.0001)     ;
(PID.TID 0000.0001) temp_EvPrRn = /* Temp. of Evap/Prec/R (UNSET=use local T)(oC)*/
(PID.TID 0000.0001)                 1.234567000000000E+05
(PID.TID 0000.0001)     ;
(PID.TID 0000.0001) salt_EvPrRn = /* Salin. of Evap/Prec/R (UNSET=use local S)(psu)*/
(PID.TID 0000.0001)                 0.000000000000000E+00
(PID.TID 0000.0001)     ;
(PID.TID 0000.0001) selectAddFluid = /* option for mass source/sink of fluid (=0: off) */
(PID.TID 0000.0001)                       0
(PID.TID 0000.0001)     ;
(PID.TID 0000.0001) temp_addMass = /* Temp. of addMass array (UNSET=use local T)(oC)*/
(PID.TID 0000.0001)                 1.234567000000000E+05
(PID.TID 0000.0001)     ;
(PID.TID 0000.0001) salt_addMass = /* Salin. of addMass array (UNSET=use local S)(psu)*/
(PID.TID 0000.0001)                 0.000000000000000E+00
(PID.TID 0000.0001)     ;
(PID.TID 0000.0001) convertFW2Salt = /* convert F.W. Flux to Salt Flux (-1=use local S)(psu)*/
(PID.TID 0000.0001)                 3.500000000000000E+01
(PID.TID 0000.0001)     ;
(PID.TID 0000.0001) use3Dsolver = /* use 3-D pressure solver on/off flag */
(PID.TID 0000.0001)                   F
(PID.TID 0000.0001)     ;
(PID.TID 0000.0001) nonHydrostatic =  /* Non-Hydrostatic on/off flag */
(PID.TID 0000.0001)                   F
(PID.TID 0000.0001)     ;
(PID.TID 0000.0001) nh_Am2 = /* Non-Hydrostatic terms scaling factor */
(PID.TID 0000.0001)                 1.000000000000000E+00
(PID.TID 0000.0001)     ;
(PID.TID 0000.0001) implicitNHPress = /* Non-Hyd Pressure implicit factor (0-1)*/
(PID.TID 0000.0001)                 1.000000000000000E+00
(PID.TID 0000.0001)     ;
(PID.TID 0000.0001) selectNHfreeSurf = /* Non-Hyd (free-)Surface option */
(PID.TID 0000.0001)                       0
(PID.TID 0000.0001)     ;
(PID.TID 0000.0001) quasiHydrostatic = /* Quasi-Hydrostatic on/off flag */
(PID.TID 0000.0001)                   F
(PID.TID 0000.0001)     ;
(PID.TID 0000.0001) calc_wVelocity = /* vertical velocity calculation on/off flag */
(PID.TID 0000.0001)                   T
(PID.TID 0000.0001)     ;
(PID.TID 0000.0001) momStepping =  /* Momentum equation on/off flag */
(PID.TID 0000.0001)                   T
(PID.TID 0000.0001)     ;
(PID.TID 0000.0001) vectorInvariantMomentum= /* Vector-Invariant Momentum on/off */
(PID.TID 0000.0001)                   F
(PID.TID 0000.0001)     ;
(PID.TID 0000.0001) momAdvection =  /* Momentum advection on/off flag */
(PID.TID 0000.0001)                   T
(PID.TID 0000.0001)     ;
(PID.TID 0000.0001) momViscosity =  /* Momentum viscosity on/off flag */
(PID.TID 0000.0001)                   T
(PID.TID 0000.0001)     ;
(PID.TID 0000.0001) momImplVertAdv= /* Momentum implicit vert. advection on/off*/
(PID.TID 0000.0001)                   F
(PID.TID 0000.0001)     ;
(PID.TID 0000.0001) implicitViscosity = /* Implicit viscosity on/off flag */
(PID.TID 0000.0001)                   F
(PID.TID 0000.0001)     ;
(PID.TID 0000.0001) selectImplicitDrag= /* Implicit bot Drag options (0,1,2)*/
(PID.TID 0000.0001)                       0
(PID.TID 0000.0001)     0= Expl. ; 1= Impl. on provis. Vel ; 2= Fully Impl (with surf.P)
(PID.TID 0000.0001)     ;
(PID.TID 0000.0001) metricTerms =  /* metric-Terms on/off flag */
(PID.TID 0000.0001)                   F
(PID.TID 0000.0001)     ;
(PID.TID 0000.0001) useNHMTerms = /* Non-Hydrostatic Metric-Terms on/off */
(PID.TID 0000.0001)                   F
(PID.TID 0000.0001)     ;
(PID.TID 0000.0001) selectCoriMap = /* Coriolis Map options (0,1,2,3)*/
(PID.TID 0000.0001)                       1
(PID.TID 0000.0001)     0= f-Plane ; 1= Beta-Plane ; 2= Spherical ; 3= read from file
(PID.TID 0000.0001)     ;
(PID.TID 0000.0001) use3dCoriolis = /* 3-D Coriolis on/off flag */
(PID.TID 0000.0001)                   F
(PID.TID 0000.0001)     ;
(PID.TID 0000.0001) useCoriolis =  /* Coriolis on/off flag */
(PID.TID 0000.0001)                   T
(PID.TID 0000.0001)     ;
(PID.TID 0000.0001) useCDscheme =  /* CD scheme on/off flag */
(PID.TID 0000.0001)                   F
(PID.TID 0000.0001)     ;
(PID.TID 0000.0001) selectCoriScheme= /* Scheme selector for Coriolis-Term */
(PID.TID 0000.0001)                       0
(PID.TID 0000.0001)    = 0 : original discretization (simple averaging, no hFac)
(PID.TID 0000.0001)    = 1 : Wet-point averaging (Jamar & Ozer 1986)
(PID.TID 0000.0001)    = 2 : energy conserving scheme (no hFac weight)
(PID.TID 0000.0001)    = 3 : energy conserving scheme using Wet-point averaging
(PID.TID 0000.0001)     ;
(PID.TID 0000.0001) momForcing =  /* Momentum forcing on/off flag */
(PID.TID 0000.0001)                   T
(PID.TID 0000.0001)     ;
(PID.TID 0000.0001) momTidalForcing = /* Momentum Tidal forcing on/off flag */
(PID.TID 0000.0001)                   T
(PID.TID 0000.0001)     ;
(PID.TID 0000.0001) momPressureForcing =  /* Momentum pressure term on/off flag */
(PID.TID 0000.0001)                   T
(PID.TID 0000.0001)     ;
(PID.TID 0000.0001) implicitIntGravWave= /* Implicit Internal Gravity Wave flag */
(PID.TID 0000.0001)                   F
(PID.TID 0000.0001)     ;
(PID.TID 0000.0001) staggerTimeStep =    /* Stagger time stepping on/off flag */
(PID.TID 0000.0001)                   F
(PID.TID 0000.0001)     ;
(PID.TID 0000.0001) doResetHFactors = /* reset thickness factors @ each time-step */
(PID.TID 0000.0001)                   F
(PID.TID 0000.0001)     ;
(PID.TID 0000.0001) multiDimAdvection =  /* enable/disable Multi-Dim Advection */
(PID.TID 0000.0001)                   T
(PID.TID 0000.0001)     ;
(PID.TID 0000.0001) useMultiDimAdvec =   /* Multi-Dim Advection is/is-not used */
(PID.TID 0000.0001)                   F
(PID.TID 0000.0001)     ;
(PID.TID 0000.0001) implicitDiffusion = /* Implicit Diffusion on/off flag */
(PID.TID 0000.0001)                   F
(PID.TID 0000.0001)     ;
(PID.TID 0000.0001) tempStepping =  /* Temperature equation on/off flag */
(PID.TID 0000.0001)                   F
(PID.TID 0000.0001)     ;
(PID.TID 0000.0001) tempAdvection = /* Temperature advection on/off flag */
(PID.TID 0000.0001)                   F
(PID.TID 0000.0001)     ;
(PID.TID 0000.0001) tempImplVertAdv = /* Temp. implicit vert. advection on/off */
(PID.TID 0000.0001)                   F
(PID.TID 0000.0001)     ;
(PID.TID 0000.0001) tempForcing  =  /* Temperature forcing on/off flag */
(PID.TID 0000.0001)                   F
(PID.TID 0000.0001)     ;
(PID.TID 0000.0001) doThetaClimRelax = /* apply SST relaxation on/off flag */
(PID.TID 0000.0001)                   F
(PID.TID 0000.0001)     ;
(PID.TID 0000.0001) tempIsActiveTr = /* Temp. is a dynamically Active Tracer */
(PID.TID 0000.0001)                   F
(PID.TID 0000.0001)     ;
(PID.TID 0000.0001) saltStepping =  /* Salinity equation on/off flag */
(PID.TID 0000.0001)                   F
(PID.TID 0000.0001)     ;
(PID.TID 0000.0001) saltAdvection = /* Salinity advection on/off flag */
(PID.TID 0000.0001)                   F
(PID.TID 0000.0001)     ;
(PID.TID 0000.0001) saltImplVertAdv = /* Sali. implicit vert. advection on/off */
(PID.TID 0000.0001)                   F
(PID.TID 0000.0001)     ;
(PID.TID 0000.0001) saltForcing  =  /* Salinity forcing on/off flag */
(PID.TID 0000.0001)                   F
(PID.TID 0000.0001)     ;
(PID.TID 0000.0001) doSaltClimRelax = /* apply SSS relaxation on/off flag */
(PID.TID 0000.0001)                   F
(PID.TID 0000.0001)     ;
(PID.TID 0000.0001) saltIsActiveTr = /* Salt  is a dynamically Active Tracer */
(PID.TID 0000.0001)                   F
(PID.TID 0000.0001)     ;
(PID.TID 0000.0001)  readBinaryPrec = /* Precision used for reading binary files */
(PID.TID 0000.0001)                      32
(PID.TID 0000.0001)     ;
(PID.TID 0000.0001) writeBinaryPrec = /* Precision used for writing binary files */
(PID.TID 0000.0001)                      32
(PID.TID 0000.0001)     ;
(PID.TID 0000.0001)  rwSuffixType =   /* select format of mds file suffix */
(PID.TID 0000.0001)                       0
(PID.TID 0000.0001)    = 0 : myIter (I10.10) ;   = 1 : 100*myTime (100th sec) ;
(PID.TID 0000.0001)    = 2 : myTime (seconds);   = 3 : myTime/360 (10th of hr);
(PID.TID 0000.0001)    = 4 : myTime/3600 (hours)
(PID.TID 0000.0001)     ;
(PID.TID 0000.0001)  globalFiles = /* write "global" (=not per tile) files */
(PID.TID 0000.0001)                   F
(PID.TID 0000.0001)     ;
(PID.TID 0000.0001)  useSingleCpuIO = /* only master MPI process does I/O */
(PID.TID 0000.0001)                   T
(PID.TID 0000.0001)     ;
(PID.TID 0000.0001)  useSingleCpuInput = /* only master process reads input */
(PID.TID 0000.0001)                   T
(PID.TID 0000.0001)     ;
(PID.TID 0000.0001) /* debLev[*]  : level of debug & auxiliary message printing */
(PID.TID 0000.0001) debLevZero =  0 ; /* level of disabled aux. msg printing */
(PID.TID 0000.0001)    debLevA =  1 ; /* level of minimum  aux. msg printing */
(PID.TID 0000.0001)    debLevB =  2 ; /* level of low aux. print (report read-file opening)*/
(PID.TID 0000.0001)    debLevC =  3 ; /* level of moderate debug prt (most pkgs debug msg) */
(PID.TID 0000.0001)    debLevD =  4 ; /* level of enhanced debug prt (add DEBUG_STATS prt) */
(PID.TID 0000.0001)    debLevE =  5 ; /* level of extensive debug printing */
(PID.TID 0000.0001) debugLevel =  /* select debug printing level */
(PID.TID 0000.0001)                       2
(PID.TID 0000.0001)     ;
(PID.TID 0000.0001)  plotLevel =  /* select PLOT_FIELD printing level */
(PID.TID 0000.0001)                       2
(PID.TID 0000.0001)     ;
(PID.TID 0000.0001) //
(PID.TID 0000.0001) // Elliptic solver(s) paramters ( PARM02 in namelist )
(PID.TID 0000.0001) //
(PID.TID 0000.0001) cg2dMaxIters =   /* Upper limit on 2d con. grad iterations  */
(PID.TID 0000.0001)                    1000
(PID.TID 0000.0001)     ;
(PID.TID 0000.0001) cg2dChkResFreq =   /* 2d con. grad convergence test frequency */
(PID.TID 0000.0001)                       1
(PID.TID 0000.0001)     ;
(PID.TID 0000.0001) cg2dUseMinResSol= /* use cg2d last-iter(=0) / min-resid.(=1) solution */
(PID.TID 0000.0001)                       0
(PID.TID 0000.0001)     ;
(PID.TID 0000.0001) cg2dTargetResidual =   /* 2d con. grad target residual  */
(PID.TID 0000.0001)                 1.000000000000000E-07
(PID.TID 0000.0001)     ;
(PID.TID 0000.0001) cg2dTargetResWunit =   /* CG2d target residual [W units] */
(PID.TID 0000.0001)                -1.000000000000000E+00
(PID.TID 0000.0001)     ;
(PID.TID 0000.0001) cg2dPreCondFreq =   /* Freq. for updating cg2d preconditioner */
(PID.TID 0000.0001)                       1
(PID.TID 0000.0001)     ;
(PID.TID 0000.0001) useSRCGSolver =  /* use single reduction CG solver(s) */
(PID.TID 0000.0001)                   F
(PID.TID 0000.0001)     ;
(PID.TID 0000.0001) printResidualFreq = /* Freq. for printing CG residual */
(PID.TID 0000.0001)                       0
(PID.TID 0000.0001)     ;
(PID.TID 0000.0001) //
(PID.TID 0000.0001) // Time stepping paramters ( PARM03 in namelist )
(PID.TID 0000.0001) //
(PID.TID 0000.0001) deltaTMom =   /* Momentum equation timestep ( s ) */
(PID.TID 0000.0001)                 1.200000000000000E+03
(PID.TID 0000.0001)     ;
(PID.TID 0000.0001) deltaTFreeSurf = /* FreeSurface equation timestep ( s ) */
(PID.TID 0000.0001)                 1.200000000000000E+03
(PID.TID 0000.0001)     ;
(PID.TID 0000.0001) dTtracerLev =  /* Tracer equation timestep ( s ) */
(PID.TID 0000.0001)                 1.200000000000000E+03       /* K =  1 */
(PID.TID 0000.0001)     ;
(PID.TID 0000.0001) deltaTClock  =   /* Model clock timestep ( s ) */
(PID.TID 0000.0001)                 1.200000000000000E+03
(PID.TID 0000.0001)     ;
(PID.TID 0000.0001) cAdjFreq =   /* Convective adjustment interval ( s ) */
(PID.TID 0000.0001)                 0.000000000000000E+00
(PID.TID 0000.0001)     ;
(PID.TID 0000.0001) momForcingOutAB = /* =1: take Momentum Forcing out of Adams-Bash. stepping */
(PID.TID 0000.0001)                       0
(PID.TID 0000.0001)     ;
(PID.TID 0000.0001) tracForcingOutAB = /* =1: take T,S,pTr Forcing out of Adams-Bash. stepping */
(PID.TID 0000.0001)                       0
(PID.TID 0000.0001)     ;
(PID.TID 0000.0001) momDissip_In_AB = /* put Dissipation Tendency in Adams-Bash. stepping */
(PID.TID 0000.0001)                   T
(PID.TID 0000.0001)     ;
(PID.TID 0000.0001) doAB_onGtGs = /* apply AB on Tendencies (rather than on T,S)*/
(PID.TID 0000.0001)                   T
(PID.TID 0000.0001)     ;
(PID.TID 0000.0001) abEps =   /* Adams-Bashforth-2 stabilizing weight */
(PID.TID 0000.0001)                 1.000000000000000E-02
(PID.TID 0000.0001)     ;
(PID.TID 0000.0001) applyExchUV_early = /* Apply EXCH to U,V earlier in time-step */
(PID.TID 0000.0001)                   F
(PID.TID 0000.0001)     ;
(PID.TID 0000.0001) pickupStrictlyMatch= /* stop if pickup do not strictly match */
(PID.TID 0000.0001)                   T
(PID.TID 0000.0001)     ;
(PID.TID 0000.0001) nIter0   =   /* Run starting timestep number */
(PID.TID 0000.0001)                       0
(PID.TID 0000.0001)     ;
(PID.TID 0000.0001) nTimeSteps = /* Number of timesteps */
(PID.TID 0000.0001)                   21600
(PID.TID 0000.0001)     ;
(PID.TID 0000.0001) nEndIter =   /* Run ending timestep number */
(PID.TID 0000.0001)                   21600
(PID.TID 0000.0001)     ;
(PID.TID 0000.0001) baseTime =   /* Model base time ( s ) */
(PID.TID 0000.0001)                 0.000000000000000E+00
(PID.TID 0000.0001)     ;
(PID.TID 0000.0001) startTime =  /* Run start time ( s ) */
(PID.TID 0000.0001)                 0.000000000000000E+00
(PID.TID 0000.0001)     ;
(PID.TID 0000.0001) endTime  =   /* Integration ending time ( s ) */
(PID.TID 0000.0001)                 2.592000000000000E+07
(PID.TID 0000.0001)     ;
(PID.TID 0000.0001) pChkPtFreq = /* Permanent restart/pickup file interval ( s ) */
(PID.TID 0000.0001)                 3.110400000000000E+07
(PID.TID 0000.0001)     ;
(PID.TID 0000.0001) chkPtFreq  = /* Rolling restart/pickup file interval ( s ) */
(PID.TID 0000.0001)                 2.592000000000000E+07
(PID.TID 0000.0001)     ;
(PID.TID 0000.0001) pickup_write_mdsio =   /* Model IO flag. */
(PID.TID 0000.0001)                   T
(PID.TID 0000.0001)     ;
(PID.TID 0000.0001) pickup_read_mdsio =   /* Model IO flag. */
(PID.TID 0000.0001)                   T
(PID.TID 0000.0001)     ;
(PID.TID 0000.0001) writePickupAtEnd =   /* Model IO flag. */
(PID.TID 0000.0001)                   T
(PID.TID 0000.0001)     ;
(PID.TID 0000.0001) dumpFreq =   /* Model state write out interval ( s ). */
(PID.TID 0000.0001)                 8.640000000000000E+04
(PID.TID 0000.0001)     ;
(PID.TID 0000.0001) dumpInitAndLast= /* write out Initial & Last iter. model state */
(PID.TID 0000.0001)                   T
(PID.TID 0000.0001)     ;
(PID.TID 0000.0001) snapshot_mdsio =   /* Model IO flag. */
(PID.TID 0000.0001)                   T
(PID.TID 0000.0001)     ;
(PID.TID 0000.0001) monitorFreq =   /* Monitor output interval ( s ). */
(PID.TID 0000.0001)                 8.640000000000000E+04
(PID.TID 0000.0001)     ;
(PID.TID 0000.0001) monitorSelect = /* select group of variables to monitor */
(PID.TID 0000.0001)                       2
(PID.TID 0000.0001)     ;
(PID.TID 0000.0001) monitor_stdio =   /* Model IO flag. */
(PID.TID 0000.0001)                   T
(PID.TID 0000.0001)     ;
(PID.TID 0000.0001) externForcingPeriod =   /* forcing period (s) */
(PID.TID 0000.0001)                 0.000000000000000E+00
(PID.TID 0000.0001)     ;
(PID.TID 0000.0001) externForcingCycle =   /* period of the cyle (s). */
(PID.TID 0000.0001)                 0.000000000000000E+00
(PID.TID 0000.0001)     ;
(PID.TID 0000.0001) tauThetaClimRelax =   /* relaxation time scale (s) */
(PID.TID 0000.0001)                 0.000000000000000E+00
(PID.TID 0000.0001)     ;
(PID.TID 0000.0001) tauSaltClimRelax =   /* relaxation time scale (s) */
(PID.TID 0000.0001)                 0.000000000000000E+00
(PID.TID 0000.0001)     ;
(PID.TID 0000.0001) latBandClimRelax =   /* max. Lat. where relaxation */
(PID.TID 0000.0001)                 3.720000000000000E+06
(PID.TID 0000.0001)     ;
(PID.TID 0000.0001) //
(PID.TID 0000.0001) // Gridding paramters ( PARM04 in namelist )
(PID.TID 0000.0001) //
(PID.TID 0000.0001) usingCartesianGrid = /* Cartesian coordinates flag ( True/False ) */
(PID.TID 0000.0001)                   T
(PID.TID 0000.0001)     ;
(PID.TID 0000.0001) usingCylindricalGrid = /* Cylindrical coordinates flag ( True/False ) */
(PID.TID 0000.0001)                   F
(PID.TID 0000.0001)     ;
(PID.TID 0000.0001) usingSphericalPolarGrid = /* Spherical coordinates flag ( True/False ) */
(PID.TID 0000.0001)                   F
(PID.TID 0000.0001)     ;
(PID.TID 0000.0001) usingCurvilinearGrid = /* Curvilinear coordinates flag ( True/False ) */
(PID.TID 0000.0001)                   F
(PID.TID 0000.0001)     ;
(PID.TID 0000.0001) useMin4hFacEdges = /* set hFacW,S as minimum of adjacent hFacC factor */
(PID.TID 0000.0001)                   F
(PID.TID 0000.0001)     ;
(PID.TID 0000.0001) interViscAr_pCell = /* account for partial-cell in interior vert. viscosity */
(PID.TID 0000.0001)                   F
(PID.TID 0000.0001)     ;
(PID.TID 0000.0001) interDiffKr_pCell = /* account for partial-cell in interior vert. diffusion */
(PID.TID 0000.0001)                   F
(PID.TID 0000.0001)     ;
(PID.TID 0000.0001) pCellMix_select = /* option to enhance mixing near surface & bottom */
(PID.TID 0000.0001)                       0
(PID.TID 0000.0001)     ;
(PID.TID 0000.0001) selectSigmaCoord = /* Hybrid-Sigma Vert. Coordinate option */
(PID.TID 0000.0001)                       0
(PID.TID 0000.0001)     ;
(PID.TID 0000.0001) rSigmaBnd = /* r/sigma transition ( units of r ==  m ) */
(PID.TID 0000.0001)                 1.234567000000000E+05
(PID.TID 0000.0001)     ;
(PID.TID 0000.0001) rkSign =   /* index orientation relative to vertical coordinate */
(PID.TID 0000.0001)                -1.000000000000000E+00
(PID.TID 0000.0001)     ;
[...]
(PID.TID 0000.0001) %MON pe_b_mean                    =   2.5543565585353E-05
(PID.TID 0000.0001) %MON ke_max                       =   1.7330773086698E-02
(PID.TID 0000.0001) %MON ke_mean                      =   3.7445327024030E-03
(PID.TID 0000.0001) %MON ke_vol                       =   6.8893493896486E+15
(PID.TID 0000.0001) %MON vort_r_min                   =  -1.2491552884250E-06
(PID.TID 0000.0001) %MON vort_r_max                   =   3.9630100420383E-06
(PID.TID 0000.0001) %MON vort_a_mean                  =   1.0600000000000E-04
(PID.TID 0000.0001) %MON vort_a_sd                    =   3.5891039699092E-06
(PID.TID 0000.0001) %MON vort_p_mean                  =   1.1652272308690E-04
(PID.TID 0000.0001) %MON vort_p_sd                    =   4.1793037706558E-05
(PID.TID 0000.0001) %MON surfExpan_theta_mean         =  -2.4599147410400E-20
(PID.TID 0000.0001) %MON surfExpan_salt_mean          =  -3.6897457928515E-20
(PID.TID 0000.0001) // =======================================================
(PID.TID 0000.0001) // End MONITOR dynamic field statistics
(PID.TID 0000.0001) // =======================================================
 cg2d: Sum(rhs),rhsMax =  -1.01332504259532E-02  2.41388011285100E-01
 cg2d: Sum(rhs),rhsMax =  -1.01338993612917E-02  2.41392963137981E-01
 cg2d: Sum(rhs),rhsMax =  -1.01345482516204E-02  2.41397913188715E-01
 cg2d: Sum(rhs),rhsMax =  -1.01351970962726E-02  2.41402861435855E-01
 cg2d: Sum(rhs),rhsMax =  -1.01358458945963E-02  2.41407807877927E-01
 cg2d: Sum(rhs),rhsMax =  -1.01364946467589E-02  2.41412752513486E-01
 cg2d: Sum(rhs),rhsMax =  -1.01371433523544E-02  2.41417695341078E-01
 cg2d: Sum(rhs),rhsMax =  -1.01377920110888E-02  2.41422636359266E-01
 cg2d: Sum(rhs),rhsMax =  -1.01384406224785E-02  2.41427575566617E-01
 cg2d: Sum(rhs),rhsMax =  -1.01390891865655E-02  2.41432512961702E-01
 cg2d: Sum(rhs),rhsMax =  -1.01397377026605E-02  2.41437448543110E-01
 cg2d: Sum(rhs),rhsMax =  -1.01403861705986E-02  2.41442382309411E-01
 cg2d: Sum(rhs),rhsMax =  -1.01410345904649E-02  2.41447314259213E-01
 cg2d: Sum(rhs),rhsMax =  -1.01416829612456E-02  2.41452244391109E-01
 cg2d: Sum(rhs),rhsMax =  -1.01423312825837E-02  2.41457172703706E-01
 cg2d: Sum(rhs),rhsMax =  -1.01429795550426E-02  2.41462099195618E-01
 cg2d: Sum(rhs),rhsMax =  -1.01436277779068E-02  2.41467023865460E-01
 cg2d: Sum(rhs),rhsMax =  -1.01442759504739E-02  2.41471946711865E-01
 cg2d: Sum(rhs),rhsMax =  -1.01449240723271E-02  2.41476867733465E-01
 cg2d: Sum(rhs),rhsMax =  -1.01455721434832E-02  2.41481786928899E-01
 cg2d: Sum(rhs),rhsMax =  -1.01462201642774E-02  2.41486704296809E-01
 cg2d: Sum(rhs),rhsMax =  -1.01468681329970E-02  2.41491619835853E-01
 cg2d: Sum(rhs),rhsMax =  -1.01475160503911E-02  2.41496533544693E-01
 cg2d: Sum(rhs),rhsMax =  -1.01481639155582E-02  2.41501445421989E-01
 cg2d: Sum(rhs),rhsMax =  -1.01488117281903E-02  2.41506355466416E-01
 cg2d: Sum(rhs),rhsMax =  -1.01494594878148E-02  2.41511263676656E-01
 cg2d: Sum(rhs),rhsMax =  -1.01501071948056E-02  2.41516170051397E-01
 cg2d: Sum(rhs),rhsMax =  -1.01507548485466E-02  2.41521074589326E-01
 cg2d: Sum(rhs),rhsMax =  -1.01514024480282E-02  2.41525977289150E-01
 cg2d: Sum(rhs),rhsMax =  -1.01520499932384E-02  2.41530878149571E-01
 cg2d: Sum(rhs),rhsMax =  -1.01526974843326E-02  2.41535777169304E-01
 cg2d: Sum(rhs),rhsMax =  -1.01533449203022E-02  2.41540674347063E-01
 cg2d: Sum(rhs),rhsMax =  -1.01539923009237E-02  2.41545569681592E-01
 cg2d: Sum(rhs),rhsMax =  -1.01546396262048E-02  2.41550463171603E-01
 cg2d: Sum(rhs),rhsMax =  -1.01552868952642E-02  2.41555354815853E-01
 cg2d: Sum(rhs),rhsMax =  -1.01559341082109E-02  2.41560244613079E-01
 cg2d: Sum(rhs),rhsMax =  -1.01565812641727E-02  2.41565132562035E-01
 cg2d: Sum(rhs),rhsMax =  -1.01572283630572E-02  2.41570018661490E-01
 cg2d: Sum(rhs),rhsMax =  -1.01578754038954E-02  2.41574902910201E-01
 cg2d: Sum(rhs),rhsMax =  -1.01585223876671E-02  2.41579785306951E-01
 cg2d: Sum(rhs),rhsMax =  -1.01591693129919E-02  2.41584665850511E-01
 cg2d: Sum(rhs),rhsMax =  -1.01598161793842E-02  2.41589544539682E-01
 cg2d: Sum(rhs),rhsMax =  -1.01604629866395E-02  2.41594421373243E-01
 cg2d: Sum(rhs),rhsMax =  -1.01611097347935E-02  2.41599296350000E-01
 cg2d: Sum(rhs),rhsMax =  -1.01617564226376E-02  2.41604169468764E-01
 cg2d: Sum(rhs),rhsMax =  -1.01624030506628E-02  2.41609040728346E-01
 cg2d: Sum(rhs),rhsMax =  -1.01630496179536E-02  2.41613910127570E-01
 cg2d: Sum(rhs),rhsMax =  -1.01636961245257E-02  2.41618777665262E-01
 cg2d: Sum(rhs),rhsMax =  -1.01643425691403E-02  2.41623643340251E-01
 cg2d: Sum(rhs),rhsMax =  -1.01649889519515E-02  2.41628507151390E-01
 cg2d: Sum(rhs),rhsMax =  -1.01656352729388E-02  2.41633369097519E-01
 cg2d: Sum(rhs),rhsMax =  -1.01662815310142E-02  2.41638229177496E-01
 cg2d: Sum(rhs),rhsMax =  -1.01669277258395E-02  2.41643087390185E-01
 cg2d: Sum(rhs),rhsMax =  -1.01675738573961E-02  2.41647943734446E-01
 cg2d: Sum(rhs),rhsMax =  -1.01682199247842E-02  2.41652798209163E-01
 cg2d: Sum(rhs),rhsMax =  -1.01688659279837E-02  2.41657650813214E-01
 cg2d: Sum(rhs),rhsMax =  -1.01695118666529E-02  2.41662501545489E-01
 cg2d: Sum(rhs),rhsMax =  -1.01701577395914E-02  2.41667350404875E-01
 cg2d: Sum(rhs),rhsMax =  -1.01708035467593E-02  2.41672197390293E-01
 cg2d: Sum(rhs),rhsMax =  -1.01714492882188E-02  2.41677042500631E-01
 cg2d: Sum(rhs),rhsMax =  -1.01720949630308E-02  2.41681885734826E-01
 cg2d: Sum(rhs),rhsMax =  -1.01727405708143E-02  2.41686727091786E-01
 cg2d: Sum(rhs),rhsMax =  -1.01733861111763E-02  2.41691566570447E-01
 cg2d: Sum(rhs),rhsMax =  -1.01740315839136E-02  2.41696404169738E-01
 cg2d: Sum(rhs),rhsMax =  -1.01746769881363E-02  2.41701239888610E-01
 cg2d: Sum(rhs),rhsMax =  -1.01753223238626E-02  2.41706073726006E-01
 cg2d: Sum(rhs),rhsMax =  -1.01759675900012E-02  2.41710905680892E-01
 cg2d: Sum(rhs),rhsMax =  -1.01766127864641E-02  2.41715735752224E-01
 cg2d: Sum(rhs),rhsMax =  -1.01772579130203E-02  2.41720563938971E-01
 cg2d: Sum(rhs),rhsMax =  -1.01779029690340E-02  2.41725390240116E-01
 cg2d: Sum(rhs),rhsMax =  -1.01785479539928E-02  2.41730214654645E-01
 cg2d: Sum(rhs),rhsMax =  -1.01791928672790E-02  2.41735037181540E-01
(PID.TID 0000.0001)      cg2d_init_res =   2.72677407628214E-04
(PID.TID 0000.0001)      cg2d_iters(min,last) =      -1      66
(PID.TID 0000.0001)      cg2d_last_res =   9.68906358580640E-08
(PID.TID 0000.0001) // =======================================================
(PID.TID 0000.0001) // Begin MONITOR dynamic field statistics
(PID.TID 0000.0001) // =======================================================
(PID.TID 0000.0001) %MON time_tsnumber                =                 21600
(PID.TID 0000.0001) %MON time_secondsf                =   2.5920000000000E+07
(PID.TID 0000.0001) %MON dynstat_eta_max              =   4.1975114394391E-01
(PID.TID 0000.0001) %MON dynstat_eta_min              =  -1.2666317457365E-01
(PID.TID 0000.0001) %MON dynstat_eta_mean             =   1.2298057816972E-05
(PID.TID 0000.0001) %MON dynstat_eta_sd               =   1.5814883452365E-01
(PID.TID 0000.0001) %MON dynstat_eta_del2             =   3.9800760198928E-05
(PID.TID 0000.0001) %MON dynstat_uvel_max             =   1.8631810868169E-01
(PID.TID 0000.0001) %MON dynstat_uvel_min             =  -1.5670580464002E-01
(PID.TID 0000.0001) %MON dynstat_uvel_mean            =   9.1726568395276E-09
(PID.TID 0000.0001) %MON dynstat_uvel_sd              =   6.4239816645075E-02
(PID.TID 0000.0001) %MON dynstat_uvel_del2            =   7.9125986916063E-05
(PID.TID 0000.0001) %MON dynstat_vvel_max             =   1.3866816781929E-01
(PID.TID 0000.0001) %MON dynstat_vvel_min             =  -1.6507242625209E-01
(PID.TID 0000.0001) %MON dynstat_vvel_mean            =   9.2228133086126E-08
(PID.TID 0000.0001) %MON dynstat_vvel_sd              =   5.9433065043580E-02
(PID.TID 0000.0001) %MON dynstat_vvel_del2            =   3.7624918811405E-05
(PID.TID 0000.0001) %MON dynstat_wvel_max             =   1.0988655934780E-08
(PID.TID 0000.0001) %MON dynstat_wvel_min             =  -4.2258518759627E-09
(PID.TID 0000.0001) %MON dynstat_wvel_mean            =   1.6201299028277E-20
(PID.TID 0000.0001) %MON dynstat_wvel_sd              =   3.6453459786162E-09
(PID.TID 0000.0001) %MON dynstat_wvel_del2            =   1.0849509707411E-12
(PID.TID 0000.0001) %MON dynstat_theta_max            =   2.0000000000000E+01
(PID.TID 0000.0001) %MON dynstat_theta_min            =   2.0000000000000E+01
(PID.TID 0000.0001) %MON dynstat_theta_mean           =   2.0000000000000E+01
(PID.TID 0000.0001) %MON dynstat_theta_sd             =   3.8014036363165E-13
(PID.TID 0000.0001) %MON dynstat_theta_del2           =   0.0000000000000E+00
(PID.TID 0000.0001) %MON dynstat_salt_max             =   3.0000000000000E+01
(PID.TID 0000.0001) %MON dynstat_salt_min             =   3.0000000000000E+01
(PID.TID 0000.0001) %MON dynstat_salt_mean            =   2.9999999999999E+01
(PID.TID 0000.0001) %MON dynstat_salt_sd              =   5.5777604757167E-13
(PID.TID 0000.0001) %MON dynstat_salt_del2            =   0.0000000000000E+00
(PID.TID 0000.0001) %MON trAdv_CFL_u_max              =   1.1178539787772E-02
(PID.TID 0000.0001) %MON trAdv_CFL_v_max              =   9.8912240985717E-03
(PID.TID 0000.0001) %MON trAdv_CFL_w_max              =   2.8975080106436E-09
(PID.TID 0000.0001) %MON advcfl_uvel_max              =   1.1179086520901E-02
(PID.TID 0000.0001) %MON advcfl_vvel_max              =   9.9043455751255E-03
(PID.TID 0000.0001) %MON advcfl_wvel_max              =   5.2745548486942E-09
(PID.TID 0000.0001) %MON advcfl_W_hf_max              =   0.0000000000000E+00
(PID.TID 0000.0001) %MON pe_b_mean                    =   2.5642200258566E-05
(PID.TID 0000.0001) %MON ke_max                       =   1.7386764164080E-02
(PID.TID 0000.0001) %MON ke_mean                      =   3.7591020285889E-03
(PID.TID 0000.0001) %MON ke_vol                       =   6.8893493896486E+15
(PID.TID 0000.0001) %MON vort_r_min                   =  -1.2528726517778E-06
(PID.TID 0000.0001) %MON vort_r_max                   =   3.9693424116206E-06
(PID.TID 0000.0001) %MON vort_a_mean                  =   1.0600000000000E-04
(PID.TID 0000.0001) %MON vort_a_sd                    =   3.5893279844488E-06
(PID.TID 0000.0001) %MON vort_p_mean                  =   1.1652272308690E-04
(PID.TID 0000.0001) %MON vort_p_sd                    =   4.1793054341735E-05
(PID.TID 0000.0001) %MON surfExpan_theta_mean         =   3.2408138271754E-19
(PID.TID 0000.0001) %MON surfExpan_salt_mean          =   4.8612207345952E-19
(PID.TID 0000.0001) // =======================================================
(PID.TID 0000.0001) // End MONITOR dynamic field statistics
(PID.TID 0000.0001) // =======================================================
(PID.TID 0000.0001) %CHECKPOINT     21600 ckptA
(PID.TID 0000.0001)   Seconds in section "ALL                    [THE_MODEL_MAIN]":
(PID.TID 0000.0001)           User time:   151.242918870412
(PID.TID 0000.0001)         System time:  0.000000000000000E+000
(PID.TID 0000.0001)     Wall clock time:   201.585232973099
(PID.TID 0000.0001)          No. starts:           1
(PID.TID 0000.0001)           No. stops:           1
(PID.TID 0000.0001)   Seconds in section "INITIALISE_FIXED       [THE_MODEL_MAIN]":
(PID.TID 0000.0001)           User time:  1.977900043129921E-002
(PID.TID 0000.0001)         System time:  0.000000000000000E+000
(PID.TID 0000.0001)     Wall clock time:  0.188180923461914
(PID.TID 0000.0001)          No. starts:           1
(PID.TID 0000.0001)           No. stops:           1
(PID.TID 0000.0001)   Seconds in section "THE_MAIN_LOOP          [THE_MODEL_MAIN]":
(PID.TID 0000.0001)           User time:   151.223102610558
(PID.TID 0000.0001)         System time:  0.000000000000000E+000
(PID.TID 0000.0001)     Wall clock time:   201.396992921829
(PID.TID 0000.0001)          No. starts:           1
(PID.TID 0000.0001)           No. stops:           1
(PID.TID 0000.0001)   Seconds in section "INITIALISE_VARIA    [THE_MAIN_LOOP]":
(PID.TID 0000.0001)           User time:  6.014000624418259E-003
(PID.TID 0000.0001)         System time:  0.000000000000000E+000
(PID.TID 0000.0001)     Wall clock time:  3.554487228393555E-002
(PID.TID 0000.0001)          No. starts:           1
(PID.TID 0000.0001)           No. stops:           1
(PID.TID 0000.0001)   Seconds in section "MAIN LOOP           [THE_MAIN_LOOP]":
(PID.TID 0000.0001)           User time:   151.217057351023
(PID.TID 0000.0001)         System time:  0.000000000000000E+000
(PID.TID 0000.0001)     Wall clock time:   201.361390829086
(PID.TID 0000.0001)          No. starts:           1
(PID.TID 0000.0001)           No. stops:           1
(PID.TID 0000.0001)   Seconds in section "MAIN_DO_LOOP        [THE_MAIN_LOOP]":
(PID.TID 0000.0001)           User time:   150.998766500503
(PID.TID 0000.0001)         System time:  0.000000000000000E+000
(PID.TID 0000.0001)     Wall clock time:   201.141960144043
(PID.TID 0000.0001)          No. starts:       21600
(PID.TID 0000.0001)           No. stops:       21600
(PID.TID 0000.0001)   Seconds in section "FORWARD_STEP        [MAIN_DO_LOOP]":
(PID.TID 0000.0001)           User time:   150.559785991907
(PID.TID 0000.0001)         System time:  0.000000000000000E+000
(PID.TID 0000.0001)     Wall clock time:   200.698031902313
(PID.TID 0000.0001)          No. starts:       21600
(PID.TID 0000.0001)           No. stops:       21600
(PID.TID 0000.0001)   Seconds in section "LOAD_FIELDS_DRIVER  [FORWARD_STEP]":
(PID.TID 0000.0001)           User time:  0.656521089375019
(PID.TID 0000.0001)         System time:  0.000000000000000E+000
(PID.TID 0000.0001)     Wall clock time:  0.662730216979980
(PID.TID 0000.0001)          No. starts:       21600
(PID.TID 0000.0001)           No. stops:       21600
(PID.TID 0000.0001)   Seconds in section "EXTERNAL_FLDS_LOAD [LOAD_FLDS_DRIVER]":
(PID.TID 0000.0001)           User time:  0.219604369252920
(PID.TID 0000.0001)         System time:  0.000000000000000E+000
(PID.TID 0000.0001)     Wall clock time:  0.220933437347412
(PID.TID 0000.0001)          No. starts:       21600
(PID.TID 0000.0001)           No. stops:       21600
(PID.TID 0000.0001)   Seconds in section "DO_ATMOSPHERIC_PHYS [FORWARD_STEP]":
(PID.TID 0000.0001)           User time:  0.219010524451733
(PID.TID 0000.0001)         System time:  0.000000000000000E+000
(PID.TID 0000.0001)     Wall clock time:  0.221593379974365
(PID.TID 0000.0001)          No. starts:       21600
(PID.TID 0000.0001)           No. stops:       21600
(PID.TID 0000.0001)   Seconds in section "DO_OCEANIC_PHYS     [FORWARD_STEP]":
(PID.TID 0000.0001)           User time:   2.74496901035309
(PID.TID 0000.0001)         System time:  0.000000000000000E+000
(PID.TID 0000.0001)     Wall clock time:   2.78112530708313
(PID.TID 0000.0001)          No. starts:       21600
(PID.TID 0000.0001)           No. stops:       21600
(PID.TID 0000.0001)   Seconds in section "THERMODYNAMICS      [FORWARD_STEP]":
(PID.TID 0000.0001)           User time:   1.34316802397370
(PID.TID 0000.0001)         System time:  0.000000000000000E+000
(PID.TID 0000.0001)     Wall clock time:   1.36152100563049
(PID.TID 0000.0001)          No. starts:       21600
(PID.TID 0000.0001)           No. stops:       21600
(PID.TID 0000.0001)   Seconds in section "DYNAMICS            [FORWARD_STEP]":
(PID.TID 0000.0001)           User time:   27.0643217451870
(PID.TID 0000.0001)         System time:  0.000000000000000E+000
(PID.TID 0000.0001)     Wall clock time:   27.3746550083160
(PID.TID 0000.0001)          No. starts:       21600
(PID.TID 0000.0001)           No. stops:       21600
(PID.TID 0000.0001)   Seconds in section "SOLVE_FOR_PRESSURE  [FORWARD_STEP]":
(PID.TID 0000.0001)           User time:   109.489461850375
(PID.TID 0000.0001)         System time:  0.000000000000000E+000
(PID.TID 0000.0001)     Wall clock time:   110.669077634811
(PID.TID 0000.0001)          No. starts:       21600
(PID.TID 0000.0001)           No. stops:       21600
(PID.TID 0000.0001)   Seconds in section "MOM_CORRECTION_STEP [FORWARD_STEP]":
(PID.TID 0000.0001)           User time:   2.05093820393085
(PID.TID 0000.0001)         System time:  0.000000000000000E+000
(PID.TID 0000.0001)     Wall clock time:   2.05941343307495
(PID.TID 0000.0001)          No. starts:       21600
(PID.TID 0000.0001)           No. stops:       21600
(PID.TID 0000.0001)   Seconds in section "INTEGR_CONTINUITY   [FORWARD_STEP]":
(PID.TID 0000.0001)           User time:   1.23402005061507
(PID.TID 0000.0001)         System time:  0.000000000000000E+000
(PID.TID 0000.0001)     Wall clock time:   1.24004173278809
(PID.TID 0000.0001)          No. starts:       21600
(PID.TID 0000.0001)           No. stops:       21600
(PID.TID 0000.0001)   Seconds in section "TRC_CORRECTION_STEP [FORWARD_STEP]":
(PID.TID 0000.0001)           User time:  0.223706889897585
(PID.TID 0000.0001)         System time:  0.000000000000000E+000
(PID.TID 0000.0001)     Wall clock time:  0.223298072814941
(PID.TID 0000.0001)          No. starts:       21600
(PID.TID 0000.0001)           No. stops:       21600
(PID.TID 0000.0001)   Seconds in section "BLOCKING_EXCHANGES  [FORWARD_STEP]":
(PID.TID 0000.0001)           User time:  0.562592241913080
(PID.TID 0000.0001)         System time:  0.000000000000000E+000
(PID.TID 0000.0001)     Wall clock time:  0.568711042404175
(PID.TID 0000.0001)          No. starts:       21600
(PID.TID 0000.0001)           No. stops:       21600
(PID.TID 0000.0001)   Seconds in section "MONITOR             [FORWARD_STEP]":
(PID.TID 0000.0001)           User time:  0.543853674083948
(PID.TID 0000.0001)         System time:  0.000000000000000E+000
(PID.TID 0000.0001)     Wall clock time:  0.706535100936890
(PID.TID 0000.0001)          No. starts:       21600
(PID.TID 0000.0001)           No. stops:       21600
(PID.TID 0000.0001)   Seconds in section "DO_THE_MODEL_IO     [FORWARD_STEP]":
(PID.TID 0000.0001)           User time:   1.00704731419683
(PID.TID 0000.0001)         System time:  0.000000000000000E+000
(PID.TID 0000.0001)     Wall clock time:   49.3986220359802
(PID.TID 0000.0001)          No. starts:       21600
(PID.TID 0000.0001)           No. stops:       21600
(PID.TID 0000.0001)   Seconds in section "DO_WRITE_PICKUP     [FORWARD_STEP]":
(PID.TID 0000.0001)           User time:  0.231531608849764
(PID.TID 0000.0001)         System time:  0.000000000000000E+000
(PID.TID 0000.0001)     Wall clock time:  0.300736188888550
(PID.TID 0000.0001)          No. starts:       21600
(PID.TID 0000.0001)           No. stops:       21600
(PID.TID 0000.0001) // ======================================================
(PID.TID 0000.0001) // Tile <-> Tile communication statistics
(PID.TID 0000.0001) // ======================================================
(PID.TID 0000.0001) // o Tile number: 000001
(PID.TID 0000.0001) //         No. X exchanges =              0
(PID.TID 0000.0001) //            Max. X spins =              0
(PID.TID 0000.0001) //            Min. X spins =     1000000000
(PID.TID 0000.0001) //          Total. X spins =              0
(PID.TID 0000.0001) //            Avg. X spins =       0.00E+00
(PID.TID 0000.0001) //         No. Y exchanges =              0
(PID.TID 0000.0001) //            Max. Y spins =              0
(PID.TID 0000.0001) //            Min. Y spins =     1000000000
(PID.TID 0000.0001) //          Total. Y spins =              0
(PID.TID 0000.0001) //            Avg. Y spins =       0.00E+00
(PID.TID 0000.0001) // o Thread number: 000001
(PID.TID 0000.0001) //            No. barriers =        9926354
(PID.TID 0000.0001) //      Max. barrier spins =              1
(PID.TID 0000.0001) //      Min. barrier spins =              1
(PID.TID 0000.0001) //     Total barrier spins =        9926354
(PID.TID 0000.0001) //      Avg. barrier spins =       1.00E+00
PROGRAM MAIN: Execution ended Normally
