(PID.TID 0000.0001) *** ERROR ***  MDS_READ_FIELD: filename: windx_cosy.bin , windx_cosy.bin.001.001.data
(PID.TID 0000.0001) *** ERROR ***  MDS_READ_FIELD: Files DO not exist
