(PID.TID 0003.0001) 
(PID.TID 0003.0001) // ======================================================
(PID.TID 0003.0001) //                      MITgcm UV
(PID.TID 0003.0001) //                      =========
(PID.TID 0003.0001) // ======================================================
(PID.TID 0003.0001) // execution environment starting up...
(PID.TID 0003.0001) 
(PID.TID 0003.0001) // MITgcmUV version:  checkpoint67v
(PID.TID 0003.0001) // Build user:        eavesr
(PID.TID 0003.0001) // Build host:        atmlxint3
(PID.TID 0003.0001) // Build date:        Thu 25 Feb 14:25:42 GMT 2021
(PID.TID 0003.0001) 
(PID.TID 0003.0001) // =======================================================
(PID.TID 0003.0001) // Execution Environment parameter file "eedata"
(PID.TID 0003.0001) // =======================================================
(PID.TID 0003.0001) ># Example "eedata" file
(PID.TID 0003.0001) ># Lines beginning "#" are comments
(PID.TID 0003.0001) >#  nTx      :: No. threads per process in X
(PID.TID 0003.0001) >#  nTy      :: No. threads per process in Y
(PID.TID 0003.0001) ># debugMode :: print debug msg (sequence of S/R calls)
(PID.TID 0003.0001) > &EEPARMS
(PID.TID 0003.0001) > nTx=1,
(PID.TID 0003.0001) > nTy=1,
(PID.TID 0003.0001) > &
(PID.TID 0003.0001) ># Note: Some systems use & as the namelist terminator (as shown here).
(PID.TID 0003.0001) >#       Other systems use a / character.
(PID.TID 0003.0001) 
(PID.TID 0003.0001) // =======================================================
(PID.TID 0003.0001) // Computational Grid Specification ( see files "SIZE.h" )
(PID.TID 0003.0001) //                                  ( and "eedata"       )
(PID.TID 0003.0001) // =======================================================
(PID.TID 0003.0001)      nPx =    2 ; /* No. processes in X */
(PID.TID 0003.0001)      nPy =    2 ; /* No. processes in Y */
(PID.TID 0003.0001)      nSx =    1 ; /* No. tiles in X per process */
(PID.TID 0003.0001)      nSy =    1 ; /* No. tiles in Y per process */
(PID.TID 0003.0001)      sNx =  124 ; /* Tile size in X */
(PID.TID 0003.0001)      sNy =  124 ; /* Tile size in Y */
(PID.TID 0003.0001)      OLx =    2 ; /* Tile overlap distance in X */
(PID.TID 0003.0001)      OLy =    2 ; /* Tile overlap distance in Y */
(PID.TID 0003.0001)      nTx =    1 ; /* No. threads in X per process */
(PID.TID 0003.0001)      nTy =    1 ; /* No. threads in Y per process */
(PID.TID 0003.0001)       Nr =    1 ; /* No. levels in the vertical   */
(PID.TID 0003.0001)       Nx =  248 ; /* Total domain size in X ( = nPx*nSx*sNx ) */
(PID.TID 0003.0001)       Ny =  248 ; /* Total domain size in Y ( = nPy*nSy*sNy ) */
(PID.TID 0003.0001)   nTiles =    1 ; /* Total no. tiles per process ( = nSx*nSy ) */
(PID.TID 0003.0001)   nProcs =    4 ; /* Total no. processes ( = nPx*nPy ) */
(PID.TID 0003.0001) nThreads =    1 ; /* Total no. threads per process ( = nTx*nTy ) */
(PID.TID 0003.0001) usingMPI =    T ; /* Flag used to control whether MPI is in use */
(PID.TID 0003.0001)                   /*  note: To execute a program with MPI calls */
(PID.TID 0003.0001)                   /*  it must be launched appropriately e.g     */
(PID.TID 0003.0001)                   /*  "mpirun -np 64 ......"                    */
(PID.TID 0003.0001) useCoupler=   F ; /* Flag used to control communications with   */
(PID.TID 0003.0001)                   /*  other model components, through a coupler */
(PID.TID 0003.0001) useNest2W_parent =    F ;/* Control 2-W Nesting comm */
(PID.TID 0003.0001) useNest2W_child  =    F ;/* Control 2-W Nesting comm */
(PID.TID 0003.0001) debugMode =    F ; /* print debug msg. (sequence of S/R calls)  */
(PID.TID 0003.0001) printMapIncludesZeros=    F ; /* print zeros in Std.Output maps */
(PID.TID 0003.0001) maxLengthPrt1D=   65 /* maxLength of 1D array printed to StdOut */
(PID.TID 0003.0001) 
(PID.TID 0003.0001) ======= Starting MPI parallel Run =========
(PID.TID 0003.0001)  My Processor Name (len:  9 ) = atmlxint3
(PID.TID 0003.0001)  Located at (  1,  1) on processor grid (0:  1,0:  1)
(PID.TID 0003.0001)  Origin at  (   125,   125) on global grid (1:   248,1:   248)
(PID.TID 0003.0001)  North neighbor = processor 0002
(PID.TID 0003.0001)  South neighbor = processor 0002
(PID.TID 0003.0001)   East neighbor = processor 0001
(PID.TID 0003.0001)   West neighbor = processor 0001
(PID.TID 0003.0001) // ======================================================
(PID.TID 0003.0001) // Mapping of tiles to threads
(PID.TID 0003.0001) // ======================================================
(PID.TID 0003.0001) // -o- Thread   1, tiles (   1:   1,   1:   1)
(PID.TID 0003.0001) 
(PID.TID 0003.0001) // ======================================================
(PID.TID 0003.0001) // Tile <-> Tile connectvity table
(PID.TID 0003.0001) // ======================================================
(PID.TID 0003.0001) // Tile number: 000004 (process no. = 000003)
(PID.TID 0003.0001) //        WEST: Tile = 000003, Process = 000001, Comm = messages
(PID.TID 0003.0001) //                bi = 000001, bj = 000001
(PID.TID 0003.0001) //        EAST: Tile = 000003, Process = 000001, Comm = messages
(PID.TID 0003.0001) //                bi = 000001, bj = 000001
(PID.TID 0003.0001) //       SOUTH: Tile = 000002, Process = 000002, Comm = messages
(PID.TID 0003.0001) //                bi = 000001, bj = 000001
(PID.TID 0003.0001) //       NORTH: Tile = 000002, Process = 000002, Comm = messages
(PID.TID 0003.0001) //                bi = 000001, bj = 000001
(PID.TID 0003.0001) 
(PID.TID 0003.0001)  INI_PARMS: opening model parameter file "data"
(PID.TID 0003.0001)  OPEN_COPY_DATA_FILE: opening file data
(PID.TID 0003.0001) // =======================================================
(PID.TID 0003.0001) // Parameter file "data"
(PID.TID 0003.0001) // =======================================================
(PID.TID 0003.0001) ># Model parameters
(PID.TID 0003.0001) ># Continuous equation parameters
(PID.TID 0003.0001) > &PARM01
(PID.TID 0003.0001) > viscAh=4.E2,
(PID.TID 0003.0001) > f0=0.7E-4,
(PID.TID 0003.0001) > beta=2.E-11,
(PID.TID 0003.0001) > rhoConst=1027.,
(PID.TID 0003.0001) > gBaro=9.81,
(PID.TID 0003.0001) > rigidLid=.FALSE.,
(PID.TID 0003.0001) > implicitFreeSurface=.TRUE.,
(PID.TID 0003.0001) ># momAdvection=.FALSE.,
(PID.TID 0003.0001) > tempStepping=.FALSE.,
(PID.TID 0003.0001) > saltStepping=.FALSE.,
(PID.TID 0003.0001) > useSingleCpuIO=.TRUE.,
(PID.TID 0003.0001) > hFacMin=0.1,
(PID.TID 0003.0001) > &
(PID.TID 0003.0001) >
(PID.TID 0003.0001) ># Elliptic solver parameters
(PID.TID 0003.0001) > &PARM02
(PID.TID 0003.0001) > cg2dTargetResidual=1.E-7,
(PID.TID 0003.0001) > cg2dMaxIters=1000,
(PID.TID 0003.0001) > &
(PID.TID 0003.0001) >
(PID.TID 0003.0001) ># Time stepping parameters
(PID.TID 0003.0001) > &PARM03
(PID.TID 0003.0001) > nIter0=0,
(PID.TID 0003.0001) > nTimeSteps=100,
(PID.TID 0003.0001) > deltaT=5400.0,
(PID.TID 0003.0001) > pChkptFreq=31104000.0,
(PID.TID 0003.0001) > chkptFreq=25920000.0,
(PID.TID 0003.0001) > dumpFreq=864000.0,
(PID.TID 0003.0001) > monitorFreq=86400.,
(PID.TID 0003.0001) > monitorSelect=2,
(PID.TID 0003.0001) >#-for longer run (3.0 yr):
(PID.TID 0003.0001) ># nTimeSteps=77760,
(PID.TID 0003.0001) ># monitorFreq=864000.,
(PID.TID 0003.0001) > &
(PID.TID 0003.0001) >
(PID.TID 0003.0001) ># Gridding parameters
(PID.TID 0003.0001) > &PARM04
(PID.TID 0003.0001) > usingCartesianGrid=.TRUE.,
(PID.TID 0003.0001) > delX=248*5.E3,
(PID.TID 0003.0001) > delY=248*5.E3,
(PID.TID 0003.0001) > xgOrigin=-5.E3,
(PID.TID 0003.0001) > ygOrigin=-5.E3,
(PID.TID 0003.0001) > delR=5000.,
(PID.TID 0003.0001) > &
(PID.TID 0003.0001) >
(PID.TID 0003.0001) ># Input datasets
(PID.TID 0003.0001) > &PARM05
(PID.TID 0003.0001) > bathyFile='bathy.bin'
(PID.TID 0003.0001) > zonalWindFile='wind.bin',
(PID.TID 0003.0001) >#zonalWindFile='windx_siny.bin',
(PID.TID 0003.0001) > meridWindFile=,
(PID.TID 0003.0001) > &
(PID.TID 0003.0001) 
(PID.TID 0003.0001)  INI_PARMS ; starts to read PARM01
(PID.TID 0003.0001)  INI_PARMS ; read PARM01 : OK
(PID.TID 0003.0001)  INI_PARMS ; starts to read PARM02
(PID.TID 0003.0001)  INI_PARMS ; read PARM02 : OK
(PID.TID 0003.0001)  INI_PARMS ; starts to read PARM03
(PID.TID 0003.0001)  INI_PARMS ; read PARM03 : OK
(PID.TID 0003.0001)  INI_PARMS ; starts to read PARM04
(PID.TID 0003.0001)  INI_PARMS ; read PARM04 : OK
(PID.TID 0003.0001)  INI_PARMS ; starts to read PARM05
(PID.TID 0003.0001)  INI_PARMS ; read PARM05 : OK
(PID.TID 0003.0001)  INI_PARMS: finished reading file "data"
(PID.TID 0003.0001)  PACKAGES_BOOT: opening data.pkg
(PID.TID 0003.0001)  OPEN_COPY_DATA_FILE: opening file data.pkg
(PID.TID 0003.0001) // =======================================================
(PID.TID 0003.0001) // Parameter file "data.pkg"
(PID.TID 0003.0001) // =======================================================
(PID.TID 0003.0001) ># Packages
(PID.TID 0003.0001) > &PACKAGES
(PID.TID 0003.0001) > &
(PID.TID 0003.0001) 
(PID.TID 0003.0001)  PACKAGES_BOOT: finished reading data.pkg
(PID.TID 0003.0001)  PACKAGES_BOOT: On/Off package Summary
 --------  pkgs with a standard "usePKG" On/Off switch in "data.pkg":  --------
 -------- pkgs without standard "usePKG" On/Off switch in "data.pkg":  --------
 pkg/generic_advdiff      compiled but not used ( useGAD                   = F )
 pkg/mom_common           compiled   and   used ( momStepping              = T )
 pkg/mom_vecinv           compiled but not used ( +vectorInvariantMomentum = F )
 pkg/mom_fluxform         compiled   and   used ( & not vectorInvariantMom = T )
 pkg/monitor              compiled   and   used ( monitorFreq > 0.         = T )
 pkg/debug                compiled but not used ( debugMode                = F )
 pkg/rw                   compiled   and   used
 pkg/mdsio                compiled   and   used
(PID.TID 0003.0001)  PACKAGES_BOOT: End of package Summary
(PID.TID 0003.0001) 
(PID.TID 0003.0001) SET_PARMS: done
(PID.TID 0003.0001) Enter INI_VERTICAL_GRID: setInterFDr=    T ; setCenterDr=    F
(PID.TID 0003.0001) // =======================================================
(PID.TID 0003.0001) // Field Model R_low (ini_masks_etc)
(PID.TID 0003.0001) // CMIN =         -4.999819335937500E+03
(PID.TID 0003.0001) // CMAX =         -4.500020019531250E+03
(PID.TID 0003.0001) // CINT =          1.851108579282407E+01
(PID.TID 0003.0001) // SYMBOLS (CMIN->CMAX): -abcdefghijklmnopqrstuvwxyz+
(PID.TID 0003.0001) //                  0.0: .
(PID.TID 0003.0001) // RANGE I (Lo:Hi:Step):(   123:   250:     1)
(PID.TID 0003.0001) // RANGE J (Lo:Hi:Step):(   250:   123:    -1)
(PID.TID 0003.0001) // RANGE K (Lo:Hi:Step):(   1:   1:   1)
(PID.TID 0003.0001) // =======================================================
(PID.TID 0003.0001) K =   1
(PID.TID 0003.0001) //                I=132     I=142     I=152     I=162     I=172     I=182     I=192     I=202     I=212     I=222     I=232     I=242
(PID.TID 0003.0001) // |--J--|345678901|345678901|345678901|345678901|345678901|345678901|345678901|345678901|345678901|345678901|345678901|345678901|34567890
(PID.TID 0003.0001) //    250 aaaaaaaaaaa------------------------------------------------------------------------------------------------------------------..-
(PID.TID 0003.0001) //    249 ................................................................................................................................
(PID.TID 0003.0001) //    248 ................................................................................................................................
(PID.TID 0003.0001) //    247 aaaaaaaaaaa------------------------------------------------------------------------------------------------------------------..-
(PID.TID 0003.0001) //    246 aaaaaaaaaaaaaaaaaaaaaaaaaaaaaaaaaaaaaaaaaaaaaaaaaaaaaaaaaaaaaaaaaaaaaaaaaaaa-------------------------------------------------..-
(PID.TID 0003.0001) //    245 aaaaaaaaaaaaaaaaaaaaaaaaaaaaaaaaaaaaaaaaaaaaaaaaaaaaaaaaaaaaaaaaaaaaaaaaaaaaaaaaaaaaaaaaaaa----------------------------------..-
(PID.TID 0003.0001) //    244 bbbbbbbbbbbbbbbbbaaaaaaaaaaaaaaaaaaaaaaaaaaaaaaaaaaaaaaaaaaaaaaaaaaaaaaaaaaaaaaaaaaaaaaaaaaaaaaaaaa--------------------------..-
(PID.TID 0003.0001) //    243 bbbbbbbbbbbbbbbbbbbbbbbbbbbbbbbbbbbbbbbbbbbbbbbbbbbbaaaaaaaaaaaaaaaaaaaaaaaaaaaaaaaaaaaaaaaaaaaaaaaaaaaa---------------------..-
(PID.TID 0003.0001) //    242 bbbbbbbbbbbbbbbbbbbbbbbbbbbbbbbbbbbbbbbbbbbbbbbbbbbbbbbbbbbbbbbbbbbaaaaaaaaaaaaaaaaaaaaaaaaaaaaaaaaaaaaaaaaa-----------------..-
(PID.TID 0003.0001) //    241 ccccccccccccccccccbbbbbbbbbbbbbbbbbbbbbbbbbbbbbbbbbbbbbbbbbbbbbbbbbbbbbbbbbbaaaaaaaaaaaaaaaaaaaaaaaaaaaaaaaaaa---------------..-
(PID.TID 0003.0001) //    240 ccccccccccccccccccccccccccccccccccccccccccccbbbbbbbbbbbbbbbbbbbbbbbbbbbbbbbbbbbbbbbaaaaaaaaaaaaaaaaaaaaaaaaaaaaa-------------..-
(PID.TID 0003.0001) //    239 ccccccccccccccccccccccccccccccccccccccccccccccccccccccccbbbbbbbbbbbbbbbbbbbbbbbbbbbbbbbbaaaaaaaaaaaaaaaaaaaaaaaaaa-----------..-
(PID.TID 0003.0001) //    238 ddddddddddddddddddcccccccccccccccccccccccccccccccccccccccccccccccbbbbbbbbbbbbbbbbbbbbbbbbbbbaaaaaaaaaaaaaaaaaaaaaaa----------..-
(PID.TID 0003.0001) //    237 ddddddddddddddddddddddddddddddddddddddcccccccccccccccccccccccccccccccccbbbbbbbbbbbbbbbbbbbbbbbbaaaaaaaaaaaaaaaaaaaaa---------..-
(PID.TID 0003.0001) //    236 ddddddddddddddddddddddddddddddddddddddddddddddddddccccccccccccccccccccccccccbbbbbbbbbbbbbbbbbbbbbaaaaaaaaaaaaaaaaaaaa--------..-
(PID.TID 0003.0001) //    235 eeeeeeeeeeeeeeeeeddddddddddddddddddddddddddddddddddddddddcccccccccccccccccccccccbbbbbbbbbbbbbbbbbbbbaaaaaaaaaaaaaaaaa--------..-
(PID.TID 0003.0001) //    234 eeeeeeeeeeeeeeeeeeeeeeeeeeeeeeeeeeedddddddddddddddddddddddddddddccccccccccccccccccccbbbbbbbbbbbbbbbbbaaaaaaaaaaaaaaaaa-------..-
(PID.TID 0003.0001) //    233 eeeeeeeeeeeeeeeeeeeeeeeeeeeeeeeeeeeeeeeeeeeeedddddddddddddddddddddddcccccccccccccccccccbbbbbbbbbbbbbbbbaaaaaaaaaaaaaaa-------..-
(PID.TID 0003.0001) //    232 fffffffffffffffffeeeeeeeeeeeeeeeeeeeeeeeeeeeeeeeeeeedddddddddddddddddddddccccccccccccccccbbbbbbbbbbbbbbbaaaaaaaaaaaaaaa------..-
(PID.TID 0003.0001) //    231 ffffffffffffffffffffffffffffffffeeeeeeeeeeeeeeeeeeeeeeeeeeddddddddddddddddddccccccccccccccccbbbbbbbbbbbbbbaaaaaaaaaaaaa------..-
(PID.TID 0003.0001) //    230 fffffffffffffffffffffffffffffffffffffffffeeeeeeeeeeeeeeeeeeeeeeddddddddddddddddcccccccccccccccbbbbbbbbbbbbbaaaaaaaaaaaaa-----..-
(PID.TID 0003.0001) //    229 gggggggggggggggfffffffffffffffffffffffffffffffffeeeeeeeeeeeeeeeeeeedddddddddddddddcccccccccccccbbbbbbbbbbbbbaaaaaaaaaaaa-----..-
(PID.TID 0003.0001) //    228 ggggggggggggggggggggggggggggggffffffffffffffffffffffffeeeeeeeeeeeeeeeeddddddddddddddcccccccccccccbbbbbbbbbbbbaaaaaaaaaaa-----..-
(PID.TID 0003.0001) //    227 ggggggggggggggggggggggggggggggggggggggffffffffffffffffffffeeeeeeeeeeeeeeedddddddddddddccccccccccccbbbbbbbbbbbaaaaaaaaaaa-----..-
(PID.TID 0003.0001) //    226 hhhhhhhhhhhhhhgggggggggggggggggggggggggggggggfffffffffffffffffeeeeeeeeeeeeeeddddddddddddcccccccccccbbbbbbbbbbbaaaaaaaaaaa----..-
(PID.TID 0003.0001) //    225 hhhhhhhhhhhhhhhhhhhhhhhhhhhhggggggggggggggggggggggfffffffffffffffeeeeeeeeeeeeeddddddddddddcccccccccccbbbbbbbbbbaaaaaaaaaa----..-
(PID.TID 0003.0001) //    224 hhhhhhhhhhhhhhhhhhhhhhhhhhhhhhhhhhhhggggggggggggggggggffffffffffffffeeeeeeeeeeeedddddddddddcccccccccccbbbbbbbbbaaaaaaaaaa----..-
(PID.TID 0003.0001) //    223 iiiiiiiiiiiihhhhhhhhhhhhhhhhhhhhhhhhhhhhhhggggggggggggggggfffffffffffffeeeeeeeeeeedddddddddddccccccccccbbbbbbbbbaaaaaaaaa----..-
(PID.TID 0003.0001) //    222 iiiiiiiiiiiiiiiiiiiiiiiiihhhhhhhhhhhhhhhhhhhhhhggggggggggggggffffffffffffeeeeeeeeeeeddddddddddcccccccccbbbbbbbbbbaaaaaaaa----..-
(PID.TID 0003.0001) //    221 iiiiiiiiiiiiiiiiiiiiiiiiiiiiiiiiihhhhhhhhhhhhhhhhhhgggggggggggggfffffffffffeeeeeeeeeeedddddddddcccccccccbbbbbbbbbaaaaaaaaa---..-
(PID.TID 0003.0001) //    220 jjjjjjjjiiiiiiiiiiiiiiiiiiiiiiiiiiiiiiihhhhhhhhhhhhhhhgggggggggggggffffffffffeeeeeeeeeedddddddddcccccccccbbbbbbbbaaaaaaaaa---..-
(PID.TID 0003.0001) //    219 jjjjjjjjjjjjjjjjjjjjjjjiiiiiiiiiiiiiiiiiiiiihhhhhhhhhhhhhhgggggggggggffffffffffeeeeeeeeeeddddddddcccccccccbbbbbbbbaaaaaaaa---..-
(PID.TID 0003.0001) //    218 jjjjjjjjjjjjjjjjjjjjjjjjjjjjjjjiiiiiiiiiiiiiiiiihhhhhhhhhhhhgggggggggggffffffffffeeeeeeeeeddddddddccccccccbbbbbbbbaaaaaaaa---..-
(PID.TID 0003.0001) //    217 jjjjjjjjjjjjjjjjjjjjjjjjjjjjjjjjjjjjiiiiiiiiiiiiiiihhhhhhhhhhhhggggggggggfffffffffeeeeeeeeeddddddddccccccccbbbbbbbbaaaaaaa---..-
(PID.TID 0003.0001) //    216 kkkkkkkkkkkkkkkkkkkkkjjjjjjjjjjjjjjjjjjjjiiiiiiiiiiiiihhhhhhhhhhhggggggggggfffffffffeeeeeeeeddddddddccccccccbbbbbbbaaaaaaa---..-
(PID.TID 0003.0001) //    215 kkkkkkkkkkkkkkkkkkkkkkkkkkkkjjjjjjjjjjjjjjjjjiiiiiiiiiiiihhhhhhhhhhggggggggggffffffffeeeeeeeeddddddddcccccccbbbbbbbaaaaaaa---..-
(PID.TID 0003.0001) //    214 kkkkkkkkkkkkkkkkkkkkkkkkkkkkkkkkkkjjjjjjjjjjjjjjiiiiiiiiiiiihhhhhhhhhgggggggggffffffffeeeeeeeedddddddccccccccbbbbbbbaaaaaa---..-
(PID.TID 0003.0001) //    213 llllllllllllllllllkkkkkkkkkkkkkkkkkkkkjjjjjjjjjjjjjiiiiiiiiiiihhhhhhhhhgggggggggfffffffeeeeeeeedddddddcccccccbbbbbbbaaaaaaa--..-
(PID.TID 0003.0001) //    212 llllllllllllllllllllllllllkkkkkkkkkkkkkkkkjjjjjjjjjjjjiiiiiiiiiihhhhhhhhhggggggggffffffffeeeeeeedddddddccccccbbbbbbbaaaaaaa--..-
(PID.TID 0003.0001) //    211 lllllllllllllllllllllllllllllllkkkkkkkkkkkkkkkjjjjjjjjjjjiiiiiiiiihhhhhhhhggggggggffffffffeeeeeeeddddddcccccccbbbbbbaaaaaaa--..-
(PID.TID 0003.0001) //    210 mmmmmmmmmmmmmmllllllllllllllllllllllkkkkkkkkkkkkkjjjjjjjjjjiiiiiiiiihhhhhhhhgggggggfffffffeeeeeeedddddddccccccbbbbbbbaaaaaa--..-
(PID.TID 0003.0001) //    209 mmmmmmmmmmmmmmmmmmmmmmmlllllllllllllllllkkkkkkkkkkkjjjjjjjjjjiiiiiiiihhhhhhhhgggggggfffffffeeeeeeeddddddcccccccbbbbbbaaaaaa--..-
(PID.TID 0003.0001) //    208 mmmmmmmmmmmmmmmmmmmmmmmmmmmmmllllllllllllllkkkkkkkkkkkjjjjjjjjjiiiiiiiihhhhhhhgggggggfffffffeeeeeeeddddddccccccbbbbbbaaaaaa--..-
(PID.TID 0003.0001) //    207 nnnnnnnnmmmmmmmmmmmmmmmmmmmmmmmmmlllllllllllllkkkkkkkkkkjjjjjjjjjiiiiiiihhhhhhhhggggggfffffffeeeeeeddddddccccccbbbbbbaaaaaa--..-
(PID.TID 0003.0001) //    206 nnnnnnnnnnnnnnnnnnnnmmmmmmmmmmmmmmmmmllllllllllllkkkkkkkkkjjjjjjjjiiiiiiiihhhhhhhggggggfffffffeeeeeeddddddccccccbbbbbaaaaaa--..-
(PID.TID 0003.0001) //    205 nnnnnnnnnnnnnnnnnnnnnnnnnnmmmmmmmmmmmmmmlllllllllllkkkkkkkkkjjjjjjjjiiiiiiihhhhhhhggggggffffffeeeeeeddddddccccccbbbbbbaaaaa--..-
(PID.TID 0003.0001) //    204 nnnnnnnnnnnnnnnnnnnnnnnnnnnnnnmmmmmmmmmmmmmllllllllllkkkkkkkkkjjjjjjjiiiiiiihhhhhhhggggggffffffeeeeeeddddddcccccbbbbbbaaaaa--..-
(PID.TID 0003.0001) //    203 ooooooooooooooonnnnnnnnnnnnnnnnnnnmmmmmmmmmmmmlllllllllkkkkkkkkjjjjjjjjiiiiiihhhhhhhggggggffffffeeeeeddddddcccccbbbbbbaaaaa--..-
(PID.TID 0003.0001) //    202 oooooooooooooooooooooonnnnnnnnnnnnnnnnmmmmmmmmmmlllllllllkkkkkkkkjjjjjjjiiiiiihhhhhhhggggggfffffeeeeeedddddccccccbbbbbaaaaa--..-
(PID.TID 0003.0001) //    201 ooooooooooooooooooooooooooonnnnnnnnnnnnnmmmmmmmmmmlllllllllkkkkkkkjjjjjjjiiiiiihhhhhhggggggffffffeeeeeddddddcccccbbbbbaaaaa--..-
(PID.TID 0003.0001) //    200 pppppppppoooooooooooooooooooooonnnnnnnnnnnnmmmmmmmmmllllllllkkkkkkkkjjjjjjiiiiiihhhhhhggggggfffffeeeeeedddddcccccbbbbbaaaaa--..-
(PID.TID 0003.0001) //    199 ppppppppppppppppppooooooooooooooooonnnnnnnnnnmmmmmmmmmllllllllkkkkkkkjjjjjjiiiiiihhhhhhggggggfffffeeeeedddddcccccbbbbbaaaaa--..-
(PID.TID 0003.0001) //    198 ppppppppppppppppppppppppoooooooooooooonnnnnnnnnnmmmmmmmmlllllllkkkkkkkjjjjjjiiiiiihhhhhhgggggfffffeeeeeedddddcccccbbbbbaaaaa-..-
(PID.TID 0003.0001) //    197 ppppppppppppppppppppppppppppoooooooooooonnnnnnnnnnmmmmmmmllllllllkkkkkkjjjjjjiiiiiihhhhhggggggfffffeeeeedddddcccccbbbbbaaaaa-..-
(PID.TID 0003.0001) //    196 qqqqqqqqqqqqqpppppppppppppppppppooooooooooonnnnnnnnmmmmmmmmlllllllkkkkkkjjjjjjiiiiiihhhhhgggggfffffeeeeedddddcccccbbbbbaaaaa-..-
(PID.TID 0003.0001) //    195 qqqqqqqqqqqqqqqqqqqqpppppppppppppppoooooooooonnnnnnnnmmmmmmmlllllllkkkkkkjjjjjjiiiiihhhhhhgggggfffffeeeeedddddccccbbbbbaaaaa-..-
(PID.TID 0003.0001) //    194 qqqqqqqqqqqqqqqqqqqqqqqqpppppppppppppoooooooooonnnnnnnnmmmmmmmllllllkkkkkkjjjjjjiiiiihhhhhgggggfffffeeeeedddddccccbbbbbaaaaa-..-
(PID.TID 0003.0001) //    193 qqqqqqqqqqqqqqqqqqqqqqqqqqqqppppppppppppooooooooonnnnnnnmmmmmmmllllllkkkkkkjjjjjjiiiiihhhhhgggggfffffeeeedddddcccccbbbbaaaaa-..-
(PID.TID 0003.0001) //    192 rrrrrrrrrrrrrrqqqqqqqqqqqqqqqqqpppppppppppoooooooonnnnnnnnmmmmmmllllllkkkkkkjjjjjiiiiihhhhhgggggfffffeeeeeddddcccccbbbbaaaaa-..-
(PID.TID 0003.0001) //    191 rrrrrrrrrrrrrrrrrrrrqqqqqqqqqqqqqqppppppppppoooooooonnnnnnnmmmmmmllllllkkkkkkjjjjjiiiiihhhhhgggggffffeeeeeddddcccccbbbbaaaaa-..-
(PID.TID 0003.0001) //    190 rrrrrrrrrrrrrrrrrrrrrrrrqqqqqqqqqqqqqpppppppppooooooonnnnnnnmmmmmmllllllkkkkkkjjjjjiiiiihhhhgggggfffffeeeedddddccccbbbbaaaaa-..-
(PID.TID 0003.0001) //    189 rrrrrrrrrrrrrrrrrrrrrrrrrrrrqqqqqqqqqqqppppppppoooooooonnnnnnmmmmmmllllllkkkkkjjjjjiiiiihhhhhgggggffffeeeeeddddccccbbbbbaaaa-..-
(PID.TID 0003.0001) //    188 ssssssssssssssrrrrrrrrrrrrrrrrrqqqqqqqqqqppppppppooooooonnnnnnmmmmmmllllllkkkkkjjjjjiiiiihhhhgggggffffeeeeeddddccccbbbbbaaaa-..-
(PID.TID 0003.0001) //    187 ssssssssssssssssssssrrrrrrrrrrrrrqqqqqqqqqqpppppppooooooonnnnnnmmmmmmllllllkkkkkjjjjjiiiihhhhhggggfffffeeeeddddcccccbbbbaaaa-..-
(PID.TID 0003.0001) //    186 ssssssssssssssssssssssssrrrrrrrrrrrrqqqqqqqqppppppppoooooonnnnnnmmmmmmlllllkkkkkjjjjjiiiiihhhhgggggffffeeeedddddccccbbbbaaaa-..-
(PID.TID 0003.0001) //    185 sssssssssssssssssssssssssssrrrrrrrrrrrqqqqqqqqpppppppooooooonnnnnmmmmmmlllllkkkkkjjjjjiiiihhhhhggggffffeeeeeddddccccbbbbaaaa-..-
(PID.TID 0003.0001) //    184 tttttttttttttsssssssssssssssssrrrrrrrrrrqqqqqqqqppppppooooooonnnnnmmmmmmlllllkkkkkjjjjiiiiihhhhggggfffffeeeeddddccccbbbbaaaa-..-
(PID.TID 0003.0001) //    183 ttttttttttttttttttssssssssssssssrrrrrrrrrqqqqqqqqpppppppoooooonnnnnmmmmmlllllkkkkkjjjjjiiiihhhhgggggffffeeeeddddccccbbbbaaaa-..-
(PID.TID 0003.0001) //    182 ttttttttttttttttttttttssssssssssssrrrrrrrrrqqqqqqqpppppppoooooonnnnnmmmmmlllllkkkkkjjjjiiiiihhhhggggffffeeeeddddccccbbbbaaaa-..-
(PID.TID 0003.0001) //    181 tttttttttttttttttttttttttsssssssssssrrrrrrrrqqqqqqqpppppppooooonnnnnnmmmmmlllllkkkkjjjjjiiiihhhhggggffffeeeeddddccccbbbbaaaa-..-
(PID.TID 0003.0001) //    180 uuuuuuuuuuttttttttttttttttttssssssssssrrrrrrrrqqqqqqqppppppooooonnnnnnmmmmlllllkkkkkjjjjiiiihhhhhggggffffeeeedddccccbbbbaaaa-..-
(PID.TID 0003.0001) //    179 uuuuuuuuuuuuuuuuttttttttttttttssssssssssrrrrrrrqqqqqqqppppppooooonnnnnmmmmmlllllkkkkjjjjjiiiihhhhggggffffeeeeddddcccbbbbaaaa-..-
(PID.TID 0003.0001) //    178 uuuuuuuuuuuuuuuuuuuuttttttttttttsssssssssrrrrrrrqqqqqqqppppppooooonnnnnmmmmmllllkkkkkjjjjiiiihhhhggggffffeeeeddddccccbbbaaaa-..-
(PID.TID 0003.0001) //    177 uuuuuuuuuuuuuuuuuuuuuuutttttttttttsssssssssrrrrrrrqqqqqqpppppoooooonnnnnmmmmlllllkkkkjjjjiiiihhhhggggffffeeeeddddccccbbbaaaa-..-
(PID.TID 0003.0001) //    176 uuuuuuuuuuuuuuuuuuuuuuuuuuttttttttttssssssssrrrrrrrqqqqqqpppppooooonnnnnmmmmmllllkkkkkjjjjiiiihhhhggggffffeeeddddccccbbbaaaa-..-
(PID.TID 0003.0001) //    175 vvvvvvvvvvvvuuuuuuuuuuuuuuuuttttttttttsssssssrrrrrrrqqqqqqpppppooooonnnnnmmmmlllllkkkkjjjjiiiihhhhggggffffeeeddddccccbbbaaaa-..-
(PID.TID 0003.0001) //    174 vvvvvvvvvvvvvvvvuuuuuuuuuuuuuutttttttttsssssssrrrrrrrqqqqqppppppooooonnnnmmmmmllllkkkkjjjjiiiihhhhggggffffeeeedddccccbbbbaaa-..-
(PID.TID 0003.0001) //    173 vvvvvvvvvvvvvvvvvvvvuuuuuuuuuuuuttttttttsssssssrrrrrrrqqqqqpppppooooonnnnnmmmmlllllkkkkjjjjiiiihhhhgggffffeeeedddccccbbbbaaa-..-
(PID.TID 0003.0001) //    172 vvvvvvvvvvvvvvvvvvvvvvvuuuuuuuuuuuttttttttsssssssrrrrrrqqqqqpppppooooonnnnnmmmmllllkkkkjjjjiiiihhhhggggfffeeeeddddcccbbbbaaa-..-
(PID.TID 0003.0001) //    171 vvvvvvvvvvvvvvvvvvvvvvvvvuuuuuuuuuuttttttttsssssssrrrrrqqqqqqpppppooooonnnnmmmmlllllkkkkjjjiiiihhhhggggfffeeeeddddcccbbbbaaa-..-
(PID.TID 0003.0001) //    170 wwwwwwwwwwwvvvvvvvvvvvvvvvvuuuuuuuuuutttttttssssssrrrrrrqqqqqqppppooooonnnnnmmmmllllkkkkjjjjiiiihhhggggffffeeeddddcccbbbbaaa-..-
(PID.TID 0003.0001) //    169 wwwwwwwwwwwwwwwvvvvvvvvvvvvvvuuuuuuuuutttttttssssssrrrrrrqqqqqpppppooooonnnnmmmmllllkkkkjjjjiiiihhhhgggffffeeeddddcccbbbbaaa-..-
(PID.TID 0003.0001) //    168 wwwwwwwwwwwwwwwwwwwvvvvvvvvvvvvuuuuuuuutttttttssssssrrrrrrqqqqqpppppoooonnnnmmmmmllllkkkkjjjiiiihhhhgggffffeeeddddcccbbbbaaa-..-
(PID.TID 0003.0001) //    167 wwwwwwwwwwwwwwwwwwwwwvvvvvvvvvvvuuuuuuuutttttttssssssrrrrrqqqqqpppppooooonnnnmmmmllllkkkkjjjjiiihhhhggggfffeeeedddcccbbbbaaa-..-
(PID.TID 0003.0001) //    166 wwwwwwwwwwwwwwwwwwwwwwwvvvvvvvvvvvuuuuuuutttttttssssssrrrrrqqqqqpppppoooonnnnmmmmllllkkkkjjjjiiiihhhggggfffeeeedddccccbbbaaa-..-
(PID.TID 0003.0001) //    165 xxxxxxwwwwwwwwwwwwwwwwwwwvvvvvvvvvvuuuuuuutttttttssssssrrrrrqqqqqppppooooonnnnmmmmllllkkkjjjjiiiihhhggggfffeeeedddccccbbbaaa-..-
(PID.TID 0003.0001) //    164 xxxxxxxxxxxxwwwwwwwwwwwwwwwvvvvvvvvvuuuuuuutttttttsssssrrrrrqqqqqpppppoooonnnnmmmmllllkkkkjjjiiiihhhhgggfffeeeedddccccbbbaaa-..-
(PID.TID 0003.0001) //    163 xxxxxxxxxxxxxxxxwwwwwwwwwwwwwvvvvvvvvuuuuuuuttttttssssssrrrrrqqqqqppppoooonnnnmmmmllllkkkkjjjjiiihhhhgggffffeeedddccccbbbaaa-..-
(PID.TID 0003.0001) //    162 xxxxxxxxxxxxxxxxxxwwwwwwwwwwwwvvvvvvvvuuuuuuuttttttssssssrrrrrqqqqpppppoooonnnnmmmmllllkkkjjjjiiihhhhgggffffeeedddccccbbbaaa-..-
(PID.TID 0003.0001) //    161 xxxxxxxxxxxxxxxxxxxxxwwwwwwwwwwvvvvvvvvuuuuuuuttttttsssssrrrrrqqqqqppppoooonnnnmmmmllllkkkjjjjiiiihhhgggffffeeedddccccbbbaaa-..-
(PID.TID 0003.0001) //    160 xxxxxxxxxxxxxxxxxxxxxxwwwwwwwwwwwvvvvvvvuuuuuuuttttttsssssrrrrrqqqqppppooooonnnnmmmllllkkkkjjjiiiihhhggggfffeeeddddcccbbbaaa-..-
(PID.TID 0003.0001) //    159 xxxxxxxxxxxxxxxxxxxxxxxxwwwwwwwwwwvvvvvvvuuuuuuutttttsssssrrrrrqqqqqppppoooonnnnmmmmlllkkkkjjjiiiihhhggggfffeeeddddcccbbbaaa-..-
(PID.TID 0003.0001) //    158 yyyyyyyyyxxxxxxxxxxxxxxxxxwwwwwwwwwvvvvvvvuuuuuuttttttsssssrrrrrqqqqppppoooonnnnmmmmllllkkkjjjjiiihhhhgggfffeeeddddcccbbbaaa-..-
(PID.TID 0003.0001) //    157 yyyyyyyyyyyyyxxxxxxxxxxxxxxwwwwwwwwwvvvvvvvuuuuuutttttsssssrrrrrqqqqpppppoooonnnmmmmllllkkkjjjjiiihhhhgggfffeeeedddcccbbbaaa-..-
(PID.TID 0003.0001) //    156 yyyyyyyyyyyyyyyyxxxxxxxxxxxxwwwwwwwwwvvvvvvvuuuuuutttttsssssrrrrqqqqqppppoooonnnnmmmllllkkkkjjjiiihhhhgggfffeeeedddcccbbbaaa-..-
(PID.TID 0003.0001) //    155 yyyyyyyyyyyyyyyyyyxxxxxxxxxxxxwwwwwwwwvvvvvvuuuuuutttttsssssrrrrrqqqqppppoooonnnnmmmmlllkkkkjjjiiiihhhgggfffeeeedddcccbbbaaa-..-
(PID.TID 0003.0001) //    154 yyyyyyyyyyyyyyyyyyyyxxxxxxxxxxxwwwwwwwvvvvvvvuuuuuutttttsssssrrrrqqqqpppppooonnnnmmmmlllkkkkjjjiiiihhhgggffffeeedddcccbbbaaa-..-
(PID.TID 0003.0001) //    153 yyyyyyyyyyyyyyyyyyyyyxxxxxxxxxxxwwwwwwwvvvvvvvuuuuutttttsssssrrrrrqqqqppppoooonnnmmmmllllkkkjjjjiiihhhgggffffeeedddcccbbbaaa-..-
(PID.TID 0003.0001) //    152 yyyyyyyyyyyyyyyyyyyyyyyxxxxxxxxxxwwwwwwwvvvvvvuuuuuutttttsssssrrrrqqqqppppoooonnnnmmmllllkkkjjjjiiihhhggggfffeeedddcccbbbaaa-..-
(PID.TID 0003.0001) //    151 yyyyyyyyyyyyyyyyyyyyyyyyxxxxxxxxxwwwwwwwwvvvvvvuuuuutttttsssssrrrrqqqqppppoooonnnnmmmmlllkkkjjjjiiihhhggggfffeeedddcccbbbaaa-..-
(PID.TID 0003.0001) //    150 zzzzzzzzzyyyyyyyyyyyyyyyyxxxxxxxxxwwwwwwwvvvvvvuuuuuutttttssssrrrrrqqqqppppooonnnnmmmmlllkkkkjjjiiihhhhgggfffeeedddcccbbbaaa-..-
(PID.TID 0003.0001) //    149 zzzzzzzzzzzzyyyyyyyyyyyyyyxxxxxxxxxwwwwwwwvvvvvvuuuuutttttsssssrrrrqqqqppppoooonnnmmmmlllkkkkjjjiiihhhhgggfffeeedddcccbbbaaa-..-
(PID.TID 0003.0001) //    148 zzzzzzzzzzzzzzyyyyyyyyyyyyyxxxxxxxxxwwwwwwvvvvvvuuuuuuttttsssssrrrrqqqqppppoooonnnnmmmllllkkkjjjiiihhhhgggfffeeedddcccbbbaaa-..-
(PID.TID 0003.0001) //    147 zzzzzzzzzzzzzzzzyyyyyyyyyyyyxxxxxxxxwwwwwwwvvvvvvuuuuutttttssssrrrrqqqqppppoooonnnnmmmllllkkkjjjiiiihhhgggfffeeedddcccbbbaaa-..-
(PID.TID 0003.0001) //    146 zzzzzzzzzzzzzzzzzzyyyyyyyyyyyxxxxxxxxwwwwwwvvvvvvuuuuutttttsssssrrrrqqqqppppooonnnnmmmllllkkkjjjiiiihhhgggfffeeedddcccbbbaaa-..-
(PID.TID 0003.0001) //    145 zzzzzzzzzzzzzzzzzzzyyyyyyyyyyyxxxxxxxwwwwwwwvvvvvvuuuuuttttsssssrrrrqqqqppppooonnnnmmmmlllkkkjjjjiiihhhgggfffeeedddcccbbbaaa-..-
(PID.TID 0003.0001) //    144 zzzzzzzzzzzzzzzzzzzzyyyyyyyyyyxxxxxxxxwwwwwwvvvvvvuuuuutttttssssrrrrqqqqppppoooonnnmmmmlllkkkjjjjiiihhhgggfffeeedddcccbbbaaa-..-
(PID.TID 0003.0001) //    143 zzzzzzzzzzzzzzzzzzzzzyyyyyyyyyyxxxxxxxxwwwwwwvvvvvuuuuutttttssssrrrrqqqqppppoooonnnmmmmlllkkkkjjjiiihhhgggfffeeedddcccbbbaaa-..-
(PID.TID 0003.0001) //    142 zzzzzzzzzzzzzzzzzzzzzzyyyyyyyyyyxxxxxxxwwwwwwvvvvvvuuuuuttttsssssrrrrqqqqpppoooonnnnmmmlllkkkkjjjiiihhhgggfffeeedddcccbbbaaa-..-
(PID.TID 0003.0001) //    141 zzzzzzzzzzzzzzzzzzzzzzzyyyyyyyyyxxxxxxxwwwwwwwvvvvvuuuuuttttsssssrrrrqqqqpppoooonnnnmmmlllkkkkjjjiiihhhgggfffeeedddcccbbbaaa-..-
(PID.TID 0003.0001) //    140 zzzzzzzzzzzzzzzzzzzzzzzzyyyyyyyyyxxxxxxxwwwwwwvvvvvuuuuutttttssssrrrrqqqqppppooonnnnmmmllllkkkjjjiiihhhgggfffeeeddddcccbbaaa-..-
(PID.TID 0003.0001) //    139 +++++++zzzzzzzzzzzzzzzzzyyyyyyyyyxxxxxxxwwwwwwvvvvvuuuuutttttssssrrrrqqqqppppooonnnnmmmllllkkkjjjiiihhhgggffffeeedddcccbbbaa-..-
(PID.TID 0003.0001) //    138 +++++++++zzzzzzzzzzzzzzzzyyyyyyyyyxxxxxxxwwwwwvvvvvvuuuuuttttssssrrrrqqqqppppooonnnnmmmllllkkkjjjiiihhhgggffffeeedddcccbbbaa-..-
(PID.TID 0003.0001) //    137 +++++++++++zzzzzzzzzzzzzzyyyyyyyyyxxxxxxxwwwwwwvvvvvuuuuuttttssssrrrrqqqqppppoooonnnmmmllllkkkjjjiiihhhggggfffeeedddcccbbbaa-..-
(PID.TID 0003.0001) //    136 ++++++++++++zzzzzzzzzzzzzzyyyyyyyyxxxxxxxwwwwwwvvvvvuuuuuttttsssssrrrrqqqppppoooonnnmmmmlllkkkjjjiiihhhhgggfffeeedddcccbbbaa-..-
(PID.TID 0003.0001) //    135 +++++++++++++zzzzzzzzzzzzzyyyyyyyyyxxxxxxwwwwwwvvvvvuuuuutttttssssrrrrqqqqpppoooonnnmmmmlllkkkjjjiiihhhhgggfffeeedddcccbbbaa-..-
(PID.TID 0003.0001) //    134 ++++++++++++++zzzzzzzzzzzzzyyyyyyyyxxxxxxxwwwwwvvvvvvuuuutttttssssrrrrqqqqpppoooonnnmmmmlllkkkjjjiiiihhhgggfffeeedddcccbbbaa-..-
(PID.TID 0003.0001) //    133 +++++++++++++++zzzzzzzzzzzzyyyyyyyyxxxxxxxwwwwwwvvvvvuuuutttttssssrrrrqqqqpppoooonnnmmmmlllkkkjjjiiiihhhgggfffeeedddcccbbbaaa..a
(PID.TID 0003.0001) //    132 +++++++++++++++zzzzzzzzzzzzyyyyyyyyxxxxxxxwwwwwwvvvvvuuuuuttttssssrrrrqqqqpppoooonnnmmmmlllkkkjjjiiiihhhgggfffeeedddcccbbbaaa..a
(PID.TID 0003.0001) //    131 ++++++++++++++++zzzzzzzzzzzzyyyyyyyyxxxxxxwwwwwwvvvvvuuuuuttttssssrrrrqqqqppppooonnnmmmmlllkkkjjjiiiihhhgggfffeeedddcccbbbaaa..a
(PID.TID 0003.0001) //    130 ++++++++++++++++zzzzzzzzzzzzyyyyyyyyxxxxxxwwwwwwvvvvvuuuuuttttssssrrrrqqqqppppooonnnnmmmlllkkkjjjjiiihhhgggfffeeedddcccbbbaaa..a
(PID.TID 0003.0001) //    129 +++++++++++++++++zzzzzzzzzzzyyyyyyyyxxxxxxwwwwwwvvvvvuuuuuttttssssrrrrqqqqppppooonnnnmmmlllkkkjjjjiiihhhgggfffeeedddcccbbbaaa..a
(PID.TID 0003.0001) //    128 +++++++++++++++++zzzzzzzzzzzyyyyyyyyxxxxxxxwwwwwvvvvvuuuuuttttssssrrrrqqqqppppooonnnnmmmlllkkkjjjjiiihhhgggfffeeedddcccbbbaaa..a
(PID.TID 0003.0001) //    127 +++++++++++++++++zzzzzzzzzzzyyyyyyyyxxxxxxxwwwwwvvvvvuuuuuttttssssrrrrqqqqppppooonnnnmmmlllkkkjjjjiiihhhgggfffeeedddcccbbbaaa..a
(PID.TID 0003.0001) //    126 +++++++++++++++++zzzzzzzzzzzyyyyyyyyxxxxxxxwwwwwvvvvvuuuuuttttssssrrrrqqqqppppooonnnnmmmlllkkkjjjjiiihhhgggfffeeedddcccbbbaaa..a
(PID.TID 0003.0001) //    125 +++++++++++++++++zzzzzzzzzzzyyyyyyyyxxxxxxxwwwwwvvvvvuuuuuttttssssrrrrqqqqppppooonnnnmmmlllkkkjjjjiiihhhgggfffeeedddcccbbbaaa..a
(PID.TID 0003.0001) //    124 +++++++++++++++++zzzzzzzzzzzyyyyyyyyxxxxxxxwwwwwvvvvvuuuuuttttssssrrrrqqqqppppooonnnnmmmlllkkkjjjjiiihhhgggfffeeedddcccbbbaaa..a
(PID.TID 0003.0001) //    123 +++++++++++++++++zzzzzzzzzzzyyyyyyyyxxxxxxxwwwwwvvvvvuuuuuttttssssrrrrqqqqppppooonnnnmmmlllkkkjjjjiiihhhgggfffeeedddcccbbbaaa..a
(PID.TID 0003.0001) // =======================================================
(PID.TID 0003.0001) // END OF FIELD                                          =
(PID.TID 0003.0001) // =======================================================
(PID.TID 0003.0001) 
(PID.TID 0003.0001) // =======================================================
(PID.TID 0003.0001) // Field Model Ro_surf (ini_masks_etc)
(PID.TID 0003.0001) // CMIN =          1.000000000000000E+32
(PID.TID 0003.0001) // CMAX =         -1.000000000000000E+32
(PID.TID 0003.0001) // CINT =          0.000000000000000E+00
(PID.TID 0003.0001) // SYMBOLS (CMIN->CMAX): -abcdefghijklmnopqrstuvwxyz+
(PID.TID 0003.0001) //                  0.0: .
(PID.TID 0003.0001) // RANGE I (Lo:Hi:Step):(   123:   250:     1)
(PID.TID 0003.0001) // RANGE J (Lo:Hi:Step):(   250:   123:    -1)
(PID.TID 0003.0001) // RANGE K (Lo:Hi:Step):(   1:   1:   1)
(PID.TID 0003.0001) // =======================================================
(PID.TID 0003.0001) // =======================================================
(PID.TID 0003.0001) // END OF FIELD                                          =
(PID.TID 0003.0001) // =======================================================
(PID.TID 0003.0001) 
(PID.TID 0003.0001) // =======================================================
(PID.TID 0003.0001) // Field hFacC at iteration          0
(PID.TID 0003.0001) // CMIN =          9.000040039062500E-01
(PID.TID 0003.0001) // CMAX =          9.999638671875001E-01
(PID.TID 0003.0001) // CINT =          3.702217158564817E-03
(PID.TID 0003.0001) // SYMBOLS (CMIN->CMAX): -abcdefghijklmnopqrstuvwxyz+
(PID.TID 0003.0001) //                  0.0: .
(PID.TID 0003.0001) // RANGE I (Lo:Hi:Step):(   123:   250:     1)
(PID.TID 0003.0001) // RANGE J (Lo:Hi:Step):(   250:   123:    -1)
(PID.TID 0003.0001) // RANGE K (Lo:Hi:Step):(   1:   1:   1)
(PID.TID 0003.0001) // =======================================================
(PID.TID 0003.0001) K =   1
(PID.TID 0003.0001) //                I=132     I=142     I=152     I=162     I=172     I=182     I=192     I=202     I=212     I=222     I=232     I=242
(PID.TID 0003.0001) // |--J--|345678901|345678901|345678901|345678901|345678901|345678901|345678901|345678901|345678901|345678901|345678901|345678901|34567890
(PID.TID 0003.0001) //    250 zzzzzzzzzzz++++++++++++++++++++++++++++++++++++++++++++++++++++++++++++++++++++++++++++++++++++++++++++++++++++++++++++++++++..+
(PID.TID 0003.0001) //    249 ................................................................................................................................
(PID.TID 0003.0001) //    248 ................................................................................................................................
(PID.TID 0003.0001) //    247 zzzzzzzzzzz++++++++++++++++++++++++++++++++++++++++++++++++++++++++++++++++++++++++++++++++++++++++++++++++++++++++++++++++++..+
(PID.TID 0003.0001) //    246 zzzzzzzzzzzzzzzzzzzzzzzzzzzzzzzzzzzzzzzzzzzzzzzzzzzzzzzzzzzzzzzzzzzzzzzzzzzz+++++++++++++++++++++++++++++++++++++++++++++++++..+
(PID.TID 0003.0001) //    245 zzzzzzzzzzzzzzzzzzzzzzzzzzzzzzzzzzzzzzzzzzzzzzzzzzzzzzzzzzzzzzzzzzzzzzzzzzzzzzzzzzzzzzzzzzz++++++++++++++++++++++++++++++++++..+
(PID.TID 0003.0001) //    244 yyyyyyyyyyyyyyyyyzzzzzzzzzzzzzzzzzzzzzzzzzzzzzzzzzzzzzzzzzzzzzzzzzzzzzzzzzzzzzzzzzzzzzzzzzzzzzzzzzz++++++++++++++++++++++++++..+
(PID.TID 0003.0001) //    243 yyyyyyyyyyyyyyyyyyyyyyyyyyyyyyyyyyyyyyyyyyyyyyyyyyyyzzzzzzzzzzzzzzzzzzzzzzzzzzzzzzzzzzzzzzzzzzzzzzzzzzzz+++++++++++++++++++++..+
(PID.TID 0003.0001) //    242 yyyyyyyyyyyyyyyyyyyyyyyyyyyyyyyyyyyyyyyyyyyyyyyyyyyyyyyyyyyyyyyyyyyzzzzzzzzzzzzzzzzzzzzzzzzzzzzzzzzzzzzzzzzz+++++++++++++++++..+
(PID.TID 0003.0001) //    241 xxxxxxxxxxxxxxxxxxyyyyyyyyyyyyyyyyyyyyyyyyyyyyyyyyyyyyyyyyyyyyyyyyyyyyyyyyyyzzzzzzzzzzzzzzzzzzzzzzzzzzzzzzzzzz+++++++++++++++..+
(PID.TID 0003.0001) //    240 xxxxxxxxxxxxxxxxxxxxxxxxxxxxxxxxxxxxxxxxxxxxyyyyyyyyyyyyyyyyyyyyyyyyyyyyyyyyyyyyyyyzzzzzzzzzzzzzzzzzzzzzzzzzzzzz+++++++++++++..+
(PID.TID 0003.0001) //    239 xxxxxxxxxxxxxxxxxxxxxxxxxxxxxxxxxxxxxxxxxxxxxxxxxxxxxxxxyyyyyyyyyyyyyyyyyyyyyyyyyyyyyyyyzzzzzzzzzzzzzzzzzzzzzzzzzz+++++++++++..+
(PID.TID 0003.0001) //    238 wwwwwwwwwwwwwwwwwwxxxxxxxxxxxxxxxxxxxxxxxxxxxxxxxxxxxxxxxxxxxxxxxyyyyyyyyyyyyyyyyyyyyyyyyyyyzzzzzzzzzzzzzzzzzzzzzzz++++++++++..+
(PID.TID 0003.0001) //    237 wwwwwwwwwwwwwwwwwwwwwwwwwwwwwwwwwwwwwwxxxxxxxxxxxxxxxxxxxxxxxxxxxxxxxxxyyyyyyyyyyyyyyyyyyyyyyyyzzzzzzzzzzzzzzzzzzzzz+++++++++..+
(PID.TID 0003.0001) //    236 wwwwwwwwwwwwwwwwwwwwwwwwwwwwwwwwwwwwwwwwwwwwwwwwwwxxxxxxxxxxxxxxxxxxxxxxxxxxyyyyyyyyyyyyyyyyyyyyyzzzzzzzzzzzzzzzzzzzz++++++++..+
(PID.TID 0003.0001) //    235 vvvvvvvvvvvvvvvvvwwwwwwwwwwwwwwwwwwwwwwwwwwwwwwwwwwwwwwwwxxxxxxxxxxxxxxxxxxxxxxxyyyyyyyyyyyyyyyyyyyyzzzzzzzzzzzzzzzzz++++++++..+
(PID.TID 0003.0001) //    234 vvvvvvvvvvvvvvvvvvvvvvvvvvvvvvvvvvvwwwwwwwwwwwwwwwwwwwwwwwwwwwwwxxxxxxxxxxxxxxxxxxxxyyyyyyyyyyyyyyyyyzzzzzzzzzzzzzzzzz+++++++..+
(PID.TID 0003.0001) //    233 vvvvvvvvvvvvvvvvvvvvvvvvvvvvvvvvvvvvvvvvvvvvvwwwwwwwwwwwwwwwwwwwwwwwxxxxxxxxxxxxxxxxxxxyyyyyyyyyyyyyyyyzzzzzzzzzzzzzzz+++++++..+
(PID.TID 0003.0001) //    232 uuuuuuuuuuuuuuuuuvvvvvvvvvvvvvvvvvvvvvvvvvvvvvvvvvvvwwwwwwwwwwwwwwwwwwwwwxxxxxxxxxxxxxxxxyyyyyyyyyyyyyyyzzzzzzzzzzzzzzz++++++..+
(PID.TID 0003.0001) //    231 uuuuuuuuuuuuuuuuuuuuuuuuuuuuuuuuvvvvvvvvvvvvvvvvvvvvvvvvvvwwwwwwwwwwwwwwwwwwxxxxxxxxxxxxxxxxyyyyyyyyyyyyyyzzzzzzzzzzzzz++++++..+
(PID.TID 0003.0001) //    230 uuuuuuuuuuuuuuuuuuuuuuuuuuuuuuuuuuuuuuuuuvvvvvvvvvvvvvvvvvvvvvvwwwwwwwwwwwwwwwwxxxxxxxxxxxxxxxyyyyyyyyyyyyyzzzzzzzzzzzzz+++++..+
(PID.TID 0003.0001) //    229 tttttttttttttttuuuuuuuuuuuuuuuuuuuuuuuuuuuuuuuuuvvvvvvvvvvvvvvvvvvvwwwwwwwwwwwwwwwxxxxxxxxxxxxxyyyyyyyyyyyyyzzzzzzzzzzzz+++++..+
(PID.TID 0003.0001) //    228 ttttttttttttttttttttttttttttttuuuuuuuuuuuuuuuuuuuuuuuuvvvvvvvvvvvvvvvvwwwwwwwwwwwwwwxxxxxxxxxxxxxyyyyyyyyyyyyzzzzzzzzzzz+++++..+
(PID.TID 0003.0001) //    227 ttttttttttttttttttttttttttttttttttttttuuuuuuuuuuuuuuuuuuuuvvvvvvvvvvvvvvvwwwwwwwwwwwwwxxxxxxxxxxxxyyyyyyyyyyyzzzzzzzzzzz+++++..+
(PID.TID 0003.0001) //    226 sssssssssssssstttttttttttttttttttttttttttttttuuuuuuuuuuuuuuuuuvvvvvvvvvvvvvvwwwwwwwwwwwwxxxxxxxxxxxyyyyyyyyyyyzzzzzzzzzzz++++..+
(PID.TID 0003.0001) //    225 ssssssssssssssssssssssssssssttttttttttttttttttttttuuuuuuuuuuuuuuuvvvvvvvvvvvvvwwwwwwwwwwwwxxxxxxxxxxxyyyyyyyyyyzzzzzzzzzz++++..+
(PID.TID 0003.0001) //    224 ssssssssssssssssssssssssssssssssssssttttttttttttttttttuuuuuuuuuuuuuuvvvvvvvvvvvvwwwwwwwwwwwxxxxxxxxxxxyyyyyyyyyzzzzzzzzzz++++..+
(PID.TID 0003.0001) //    223 rrrrrrrrrrrrssssssssssssssssssssssssssssssttttttttttttttttuuuuuuuuuuuuuvvvvvvvvvvvwwwwwwwwwwwxxxxxxxxxxyyyyyyyyyzzzzzzzzz++++..+
(PID.TID 0003.0001) //    222 rrrrrrrrrrrrrrrrrrrrrrrrrssssssssssssssssssssssttttttttttttttuuuuuuuuuuuuvvvvvvvvvvvwwwwwwwwwwxxxxxxxxxyyyyyyyyyyzzzzzzzz++++..+
(PID.TID 0003.0001) //    221 rrrrrrrrrrrrrrrrrrrrrrrrrrrrrrrrrsssssssssssssssssstttttttttttttuuuuuuuuuuuvvvvvvvvvvvwwwwwwwwwxxxxxxxxxyyyyyyyyyzzzzzzzzz+++..+
(PID.TID 0003.0001) //    220 qqqqqqqqrrrrrrrrrrrrrrrrrrrrrrrrrrrrrrrssssssssssssssstttttttttttttuuuuuuuuuuvvvvvvvvvvwwwwwwwwwxxxxxxxxxyyyyyyyyzzzzzzzzz+++..+
(PID.TID 0003.0001) //    219 qqqqqqqqqqqqqqqqqqqqqqqrrrrrrrrrrrrrrrrrrrrrsssssssssssssstttttttttttuuuuuuuuuuvvvvvvvvvvwwwwwwwwxxxxxxxxxyyyyyyyyzzzzzzzz+++..+
(PID.TID 0003.0001) //    218 qqqqqqqqqqqqqqqqqqqqqqqqqqqqqqqrrrrrrrrrrrrrrrrrsssssssssssstttttttttttuuuuuuuuuuvvvvvvvvvwwwwwwwwxxxxxxxxyyyyyyyyzzzzzzzz+++..+
(PID.TID 0003.0001) //    217 qqqqqqqqqqqqqqqqqqqqqqqqqqqqqqqqqqqqrrrrrrrrrrrrrrrssssssssssssttttttttttuuuuuuuuuvvvvvvvvvwwwwwwwwxxxxxxxxyyyyyyyyzzzzzzz+++..+
(PID.TID 0003.0001) //    216 pppppppppppppppppppppqqqqqqqqqqqqqqqqqqqqrrrrrrrrrrrrrsssssssssssttttttttttuuuuuuuuuvvvvvvvvwwwwwwwwxxxxxxxxyyyyyyyzzzzzzz+++..+
(PID.TID 0003.0001) //    215 ppppppppppppppppppppppppppppqqqqqqqqqqqqqqqqqrrrrrrrrrrrrssssssssssttttttttttuuuuuuuuvvvvvvvvwwwwwwwwxxxxxxxyyyyyyyzzzzzzz+++..+
(PID.TID 0003.0001) //    214 ppppppppppppppppppppppppppppppppppqqqqqqqqqqqqqqrrrrrrrrrrrrssssssssstttttttttuuuuuuuuvvvvvvvvwwwwwwwxxxxxxxxyyyyyyyzzzzzz+++..+
(PID.TID 0003.0001) //    213 ooooooooooooooooooppppppppppppppppppppqqqqqqqqqqqqqrrrrrrrrrrrssssssssstttttttttuuuuuuuvvvvvvvvwwwwwwwxxxxxxxyyyyyyyzzzzzzz++..+
(PID.TID 0003.0001) //    212 ooooooooooooooooooooooooooppppppppppppppppqqqqqqqqqqqqrrrrrrrrrrsssssssssttttttttuuuuuuuuvvvvvvvwwwwwwwxxxxxxyyyyyyyzzzzzzz++..+
(PID.TID 0003.0001) //    211 ooooooooooooooooooooooooooooooopppppppppppppppqqqqqqqqqqqrrrrrrrrrssssssssttttttttuuuuuuuuvvvvvvvwwwwwwxxxxxxxyyyyyyzzzzzzz++..+
(PID.TID 0003.0001) //    210 nnnnnnnnnnnnnnoooooooooooooooooooooopppppppppppppqqqqqqqqqqrrrrrrrrrsssssssstttttttuuuuuuuvvvvvvvwwwwwwwxxxxxxyyyyyyyzzzzzz++..+
(PID.TID 0003.0001) //    209 nnnnnnnnnnnnnnnnnnnnnnnooooooooooooooooopppppppppppqqqqqqqqqqrrrrrrrrsssssssstttttttuuuuuuuvvvvvvvwwwwwwxxxxxxxyyyyyyzzzzzz++..+
(PID.TID 0003.0001) //    208 nnnnnnnnnnnnnnnnnnnnnnnnnnnnnoooooooooooooopppppppppppqqqqqqqqqrrrrrrrrssssssstttttttuuuuuuuvvvvvvvwwwwwwxxxxxxyyyyyyzzzzzz++..+
(PID.TID 0003.0001) //    207 mmmmmmmmnnnnnnnnnnnnnnnnnnnnnnnnnoooooooooooooppppppppppqqqqqqqqqrrrrrrrssssssssttttttuuuuuuuvvvvvvwwwwwwxxxxxxyyyyyyzzzzzz++..+
(PID.TID 0003.0001) //    206 mmmmmmmmmmmmmmmmmmmmnnnnnnnnnnnnnnnnnoooooooooooopppppppppqqqqqqqqrrrrrrrrsssssssttttttuuuuuuuvvvvvvwwwwwwxxxxxxyyyyyzzzzzz++..+
(PID.TID 0003.0001) //    205 mmmmmmmmmmmmmmmmmmmmmmmmmmnnnnnnnnnnnnnnooooooooooopppppppppqqqqqqqqrrrrrrrsssssssttttttuuuuuuvvvvvvwwwwwwxxxxxxyyyyyyzzzzz++..+
(PID.TID 0003.0001) //    204 mmmmmmmmmmmmmmmmmmmmmmmmmmmmmmnnnnnnnnnnnnnoooooooooopppppppppqqqqqqqrrrrrrrsssssssttttttuuuuuuvvvvvvwwwwwwxxxxxyyyyyyzzzzz++..+
(PID.TID 0003.0001) //    203 lllllllllllllllmmmmmmmmmmmmmmmmmmmnnnnnnnnnnnnoooooooooppppppppqqqqqqqqrrrrrrsssssssttttttuuuuuuvvvvvwwwwwwxxxxxyyyyyyzzzzz++..+
(PID.TID 0003.0001) //    202 llllllllllllllllllllllmmmmmmmmmmmmmmmmnnnnnnnnnnoooooooooppppppppqqqqqqqrrrrrrsssssssttttttuuuuuvvvvvvwwwwwxxxxxxyyyyyzzzzz++..+
(PID.TID 0003.0001) //    201 lllllllllllllllllllllllllllmmmmmmmmmmmmmnnnnnnnnnnooooooooopppppppqqqqqqqrrrrrrssssssttttttuuuuuuvvvvvwwwwwwxxxxxyyyyyzzzzz++..+
(PID.TID 0003.0001) //    200 kkkkkkkkkllllllllllllllllllllllmmmmmmmmmmmmnnnnnnnnnooooooooppppppppqqqqqqrrrrrrssssssttttttuuuuuvvvvvvwwwwwxxxxxyyyyyzzzzz++..+
(PID.TID 0003.0001) //    199 kkkkkkkkkkkkkkkkkklllllllllllllllllmmmmmmmmmmnnnnnnnnnoooooooopppppppqqqqqqrrrrrrssssssttttttuuuuuvvvvvwwwwwxxxxxyyyyyzzzzz++..+
(PID.TID 0003.0001) //    198 kkkkkkkkkkkkkkkkkkkkkkkkllllllllllllllmmmmmmmmmmnnnnnnnnooooooopppppppqqqqqqrrrrrrsssssstttttuuuuuvvvvvvwwwwwxxxxxyyyyyzzzzz+..+
(PID.TID 0003.0001) //    197 kkkkkkkkkkkkkkkkkkkkkkkkkkkkllllllllllllmmmmmmmmmmnnnnnnnooooooooppppppqqqqqqrrrrrrsssssttttttuuuuuvvvvvwwwwwxxxxxyyyyyzzzzz+..+
(PID.TID 0003.0001) //    196 jjjjjjjjjjjjjkkkkkkkkkkkkkkkkkkklllllllllllmmmmmmmmnnnnnnnnoooooooppppppqqqqqqrrrrrrssssstttttuuuuuvvvvvwwwwwxxxxxyyyyyzzzzz+..+
(PID.TID 0003.0001) //    195 jjjjjjjjjjjjjjjjjjjjkkkkkkkkkkkkkkkllllllllllmmmmmmmmnnnnnnnoooooooppppppqqqqqqrrrrrsssssstttttuuuuuvvvvvwwwwwxxxxyyyyyzzzzz+..+
(PID.TID 0003.0001) //    194 jjjjjjjjjjjjjjjjjjjjjjjjkkkkkkkkkkkkkllllllllllmmmmmmmmnnnnnnnooooooppppppqqqqqqrrrrrssssstttttuuuuuvvvvvwwwwwxxxxyyyyyzzzzz+..+
(PID.TID 0003.0001) //    193 jjjjjjjjjjjjjjjjjjjjjjjjjjjjkkkkkkkkkkkklllllllllmmmmmmmnnnnnnnooooooppppppqqqqqqrrrrrssssstttttuuuuuvvvvwwwwwxxxxxyyyyzzzzz+..+
(PID.TID 0003.0001) //    192 iiiiiiiiiiiiiijjjjjjjjjjjjjjjjjkkkkkkkkkkkllllllllmmmmmmmmnnnnnnooooooppppppqqqqqrrrrrssssstttttuuuuuvvvvvwwwwxxxxxyyyyzzzzz+..+
(PID.TID 0003.0001) //    191 iiiiiiiiiiiiiiiiiiiijjjjjjjjjjjjjjkkkkkkkkkkllllllllmmmmmmmnnnnnnooooooppppppqqqqqrrrrrssssstttttuuuuvvvvvwwwwxxxxxyyyyzzzzz+..+
(PID.TID 0003.0001) //    190 iiiiiiiiiiiiiiiiiiiiiiiijjjjjjjjjjjjjkkkkkkkkklllllllmmmmmmmnnnnnnooooooppppppqqqqqrrrrrsssstttttuuuuuvvvvwwwwwxxxxyyyyzzzzz+..+
(PID.TID 0003.0001) //    189 iiiiiiiiiiiiiiiiiiiiiiiiiiiijjjjjjjjjjjkkkkkkkkllllllllmmmmmmnnnnnnoooooopppppqqqqqrrrrrssssstttttuuuuvvvvvwwwwxxxxyyyyyzzzz+..+
(PID.TID 0003.0001) //    188 hhhhhhhhhhhhhhiiiiiiiiiiiiiiiiijjjjjjjjjjkkkkkkkklllllllmmmmmmnnnnnnoooooopppppqqqqqrrrrrsssstttttuuuuvvvvvwwwwxxxxyyyyyzzzz+..+
(PID.TID 0003.0001) //    187 hhhhhhhhhhhhhhhhhhhhiiiiiiiiiiiiijjjjjjjjjjkkkkkkklllllllmmmmmmnnnnnnoooooopppppqqqqqrrrrsssssttttuuuuuvvvvwwwwxxxxxyyyyzzzz+..+
(PID.TID 0003.0001) //    186 hhhhhhhhhhhhhhhhhhhhhhhhiiiiiiiiiiiijjjjjjjjkkkkkkkkllllllmmmmmmnnnnnnooooopppppqqqqqrrrrrsssstttttuuuuvvvvwwwwwxxxxyyyyzzzz+..+
(PID.TID 0003.0001) //    185 hhhhhhhhhhhhhhhhhhhhhhhhhhhiiiiiiiiiiijjjjjjjjkkkkkkklllllllmmmmmnnnnnnooooopppppqqqqqrrrrsssssttttuuuuvvvvvwwwwxxxxyyyyzzzz+..+
(PID.TID 0003.0001) //    184 ggggggggggggghhhhhhhhhhhhhhhhhiiiiiiiiiijjjjjjjjkkkkkklllllllmmmmmnnnnnnooooopppppqqqqrrrrrssssttttuuuuuvvvvwwwwxxxxyyyyzzzz+..+
(PID.TID 0003.0001) //    183 gggggggggggggggggghhhhhhhhhhhhhhiiiiiiiiijjjjjjjjkkkkkkkllllllmmmmmnnnnnooooopppppqqqqqrrrrsssstttttuuuuvvvvwwwwxxxxyyyyzzzz+..+
(PID.TID 0003.0001) //    182 gggggggggggggggggggggghhhhhhhhhhhhiiiiiiiiijjjjjjjkkkkkkkllllllmmmmmnnnnnooooopppppqqqqrrrrrssssttttuuuuvvvvwwwwxxxxyyyyzzzz+..+
(PID.TID 0003.0001) //    181 ggggggggggggggggggggggggghhhhhhhhhhhiiiiiiiijjjjjjjkkkkkkklllllmmmmmmnnnnnoooooppppqqqqqrrrrssssttttuuuuvvvvwwwwxxxxyyyyzzzz+..+
(PID.TID 0003.0001) //    180 ffffffffffgggggggggggggggggghhhhhhhhhhiiiiiiiijjjjjjjkkkkkklllllmmmmmmnnnnooooopppppqqqqrrrrsssssttttuuuuvvvvwwwxxxxyyyyzzzz+..+
(PID.TID 0003.0001) //    179 ffffffffffffffffgggggggggggggghhhhhhhhhhiiiiiiijjjjjjjkkkkkklllllmmmmmnnnnnoooooppppqqqqqrrrrssssttttuuuuvvvvwwwwxxxyyyyzzzz+..+
(PID.TID 0003.0001) //    178 ffffffffffffffffffffgggggggggggghhhhhhhhhiiiiiiijjjjjjjkkkkkklllllmmmmmnnnnnoooopppppqqqqrrrrssssttttuuuuvvvvwwwwxxxxyyyzzzz+..+
(PID.TID 0003.0001) //    177 fffffffffffffffffffffffggggggggggghhhhhhhhhiiiiiiijjjjjjkkkkkllllllmmmmmnnnnoooooppppqqqqrrrrssssttttuuuuvvvvwwwwxxxxyyyzzzz+..+
(PID.TID 0003.0001) //    176 ffffffffffffffffffffffffffgggggggggghhhhhhhhiiiiiiijjjjjjkkkkklllllmmmmmnnnnnoooopppppqqqqrrrrssssttttuuuuvvvwwwwxxxxyyyzzzz+..+
(PID.TID 0003.0001) //    175 eeeeeeeeeeeeffffffffffffffffgggggggggghhhhhhhiiiiiiijjjjjjkkkkklllllmmmmmnnnnoooooppppqqqqrrrrssssttttuuuuvvvwwwwxxxxyyyzzzz+..+
(PID.TID 0003.0001) //    174 eeeeeeeeeeeeeeeeffffffffffffffggggggggghhhhhhhiiiiiiijjjjjkkkkkklllllmmmmnnnnnooooppppqqqqrrrrssssttttuuuuvvvvwwwxxxxyyyyzzz+..+
(PID.TID 0003.0001) //    173 eeeeeeeeeeeeeeeeeeeeffffffffffffgggggggghhhhhhhiiiiiiijjjjjkkkkklllllmmmmmnnnnoooooppppqqqqrrrrsssstttuuuuvvvvwwwxxxxyyyyzzz+..+
(PID.TID 0003.0001) //    172 eeeeeeeeeeeeeeeeeeeeeeefffffffffffgggggggghhhhhhhiiiiiijjjjjkkkkklllllmmmmmnnnnooooppppqqqqrrrrssssttttuuuvvvvwwwwxxxyyyyzzz+..+
(PID.TID 0003.0001) //    171 eeeeeeeeeeeeeeeeeeeeeeeeeffffffffffgggggggghhhhhhhiiiiijjjjjjkkkkklllllmmmmnnnnoooooppppqqqrrrrssssttttuuuvvvvwwwwxxxyyyyzzz+..+
(PID.TID 0003.0001) //    170 dddddddddddeeeeeeeeeeeeeeeeffffffffffggggggghhhhhhiiiiiijjjjjjkkkklllllmmmmmnnnnooooppppqqqqrrrrsssttttuuuuvvvwwwwxxxyyyyzzz+..+
(PID.TID 0003.0001) //    169 dddddddddddddddeeeeeeeeeeeeeefffffffffggggggghhhhhhiiiiiijjjjjkkkkklllllmmmmnnnnooooppppqqqqrrrrsssstttuuuuvvvwwwwxxxyyyyzzz+..+
(PID.TID 0003.0001) //    168 dddddddddddddddddddeeeeeeeeeeeeffffffffggggggghhhhhhiiiiiijjjjjkkkkkllllmmmmnnnnnooooppppqqqrrrrsssstttuuuuvvvwwwwxxxyyyyzzz+..+
(PID.TID 0003.0001) //    167 dddddddddddddddddddddeeeeeeeeeeeffffffffggggggghhhhhhiiiiijjjjjkkkkklllllmmmmnnnnooooppppqqqqrrrssssttttuuuvvvvwwwxxxyyyyzzz+..+
(PID.TID 0003.0001) //    166 dddddddddddddddddddddddeeeeeeeeeeefffffffggggggghhhhhhiiiiijjjjjkkkkkllllmmmmnnnnooooppppqqqqrrrrsssttttuuuvvvvwwwxxxxyyyzzz+..+
(PID.TID 0003.0001) //    165 ccccccdddddddddddddddddddeeeeeeeeeefffffffggggggghhhhhhiiiiijjjjjkkkklllllmmmmnnnnoooopppqqqqrrrrsssttttuuuvvvvwwwxxxxyyyzzz+..+
(PID.TID 0003.0001) //    164 ccccccccccccdddddddddddddddeeeeeeeeefffffffggggggghhhhhiiiiijjjjjkkkkkllllmmmmnnnnooooppppqqqrrrrsssstttuuuvvvvwwwxxxxyyyzzz+..+
(PID.TID 0003.0001) //    163 ccccccccccccccccdddddddddddddeeeeeeeefffffffgggggghhhhhhiiiiijjjjjkkkkllllmmmmnnnnooooppppqqqqrrrsssstttuuuuvvvwwwxxxxyyyzzz+..+
(PID.TID 0003.0001) //    162 ccccccccccccccccccddddddddddddeeeeeeeefffffffgggggghhhhhhiiiiijjjjkkkkkllllmmmmnnnnoooopppqqqqrrrsssstttuuuuvvvwwwxxxxyyyzzz+..+
(PID.TID 0003.0001) //    161 cccccccccccccccccccccddddddddddeeeeeeeefffffffgggggghhhhhiiiiijjjjjkkkkllllmmmmnnnnoooopppqqqqrrrrssstttuuuuvvvwwwxxxxyyyzzz+..+
(PID.TID 0003.0001) //    160 ccccccccccccccccccccccdddddddddddeeeeeeefffffffgggggghhhhhiiiiijjjjkkkklllllmmmmnnnooooppppqqqrrrrsssttttuuuvvvwwwwxxxyyyzzz+..+
(PID.TID 0003.0001) //    159 ccccccccccccccccccccccccddddddddddeeeeeeefffffffggggghhhhhiiiiijjjjjkkkkllllmmmmnnnnoooppppqqqrrrrsssttttuuuvvvwwwwxxxyyyzzz+..+
(PID.TID 0003.0001) //    158 bbbbbbbbbcccccccccccccccccdddddddddeeeeeeeffffffgggggghhhhhiiiiijjjjkkkkllllmmmmnnnnoooopppqqqqrrrsssstttuuuvvvwwwwxxxyyyzzz+..+
(PID.TID 0003.0001) //    157 bbbbbbbbbbbbbccccccccccccccdddddddddeeeeeeeffffffggggghhhhhiiiiijjjjkkkkkllllmmmnnnnoooopppqqqqrrrsssstttuuuvvvvwwwxxxyyyzzz+..+
(PID.TID 0003.0001) //    156 bbbbbbbbbbbbbbbbccccccccccccdddddddddeeeeeeeffffffggggghhhhhiiiijjjjjkkkkllllmmmmnnnooooppppqqqrrrsssstttuuuvvvvwwwxxxyyyzzz+..+
(PID.TID 0003.0001) //    155 bbbbbbbbbbbbbbbbbbccccccccccccddddddddeeeeeeffffffggggghhhhhiiiiijjjjkkkkllllmmmmnnnnoooppppqqqrrrrssstttuuuvvvvwwwxxxyyyzzz+..+
(PID.TID 0003.0001) //    154 bbbbbbbbbbbbbbbbbbbbcccccccccccdddddddeeeeeeeffffffggggghhhhhiiiijjjjkkkkklllmmmmnnnnoooppppqqqrrrrssstttuuuuvvvwwwxxxyyyzzz+..+
(PID.TID 0003.0001) //    153 bbbbbbbbbbbbbbbbbbbbbcccccccccccdddddddeeeeeeefffffggggghhhhhiiiiijjjjkkkkllllmmmnnnnoooopppqqqqrrrssstttuuuuvvvwwwxxxyyyzzz+..+
(PID.TID 0003.0001) //    152 bbbbbbbbbbbbbbbbbbbbbbbccccccccccdddddddeeeeeeffffffggggghhhhhiiiijjjjkkkkllllmmmmnnnoooopppqqqqrrrsssttttuuuvvvwwwxxxyyyzzz+..+
(PID.TID 0003.0001) //    151 bbbbbbbbbbbbbbbbbbbbbbbbcccccccccddddddddeeeeeefffffggggghhhhhiiiijjjjkkkkllllmmmmnnnnooopppqqqqrrrsssttttuuuvvvwwwxxxyyyzzz+..+
(PID.TID 0003.0001) //    150 aaaaaaaaabbbbbbbbbbbbbbbbcccccccccdddddddeeeeeeffffffggggghhhhiiiiijjjjkkkklllmmmmnnnnoooppppqqqrrrsssstttuuuvvvwwwxxxyyyzzz+..+
(PID.TID 0003.0001) //    149 aaaaaaaaaaaabbbbbbbbbbbbbbcccccccccdddddddeeeeeefffffggggghhhhhiiiijjjjkkkkllllmmmnnnnoooppppqqqrrrsssstttuuuvvvwwwxxxyyyzzz+..+
(PID.TID 0003.0001) //    148 aaaaaaaaaaaaaabbbbbbbbbbbbbcccccccccddddddeeeeeeffffffgggghhhhhiiiijjjjkkkkllllmmmmnnnoooopppqqqrrrsssstttuuuvvvwwwxxxyyyzzz+..+
(PID.TID 0003.0001) //    147 aaaaaaaaaaaaaaaabbbbbbbbbbbbccccccccdddddddeeeeeefffffggggghhhhiiiijjjjkkkkllllmmmmnnnoooopppqqqrrrrssstttuuuvvvwwwxxxyyyzzz+..+
(PID.TID 0003.0001) //    146 aaaaaaaaaaaaaaaaaabbbbbbbbbbbccccccccddddddeeeeeefffffggggghhhhhiiiijjjjkkkklllmmmmnnnoooopppqqqrrrrssstttuuuvvvwwwxxxyyyzzz+..+
(PID.TID 0003.0001) //    145 aaaaaaaaaaaaaaaaaaabbbbbbbbbbbcccccccdddddddeeeeeefffffgggghhhhhiiiijjjjkkkklllmmmmnnnnooopppqqqqrrrssstttuuuvvvwwwxxxyyyzzz+..+
(PID.TID 0003.0001) //    144 aaaaaaaaaaaaaaaaaaaabbbbbbbbbbccccccccddddddeeeeeefffffggggghhhhiiiijjjjkkkkllllmmmnnnnooopppqqqqrrrssstttuuuvvvwwwxxxyyyzzz+..+
(PID.TID 0003.0001) //    143 aaaaaaaaaaaaaaaaaaaaabbbbbbbbbbccccccccddddddeeeeefffffggggghhhhiiiijjjjkkkkllllmmmnnnnoooppppqqqrrrssstttuuuvvvwwwxxxyyyzzz+..+
(PID.TID 0003.0001) //    142 aaaaaaaaaaaaaaaaaaaaaabbbbbbbbbbcccccccddddddeeeeeefffffgggghhhhhiiiijjjjkkkllllmmmmnnnoooppppqqqrrrssstttuuuvvvwwwxxxyyyzzz+..+
(PID.TID 0003.0001) //    141 aaaaaaaaaaaaaaaaaaaaaaabbbbbbbbbcccccccdddddddeeeeefffffgggghhhhhiiiijjjjkkkllllmmmmnnnoooppppqqqrrrssstttuuuvvvwwwxxxyyyzzz+..+
(PID.TID 0003.0001) //    140 aaaaaaaaaaaaaaaaaaaaaaaabbbbbbbbbcccccccddddddeeeeefffffggggghhhhiiiijjjjkkkklllmmmmnnnoooopppqqqrrrssstttuuuvvvwwwwxxxyyzzz+..+
(PID.TID 0003.0001) //    139 -------aaaaaaaaaaaaaaaaabbbbbbbbbcccccccddddddeeeeefffffggggghhhhiiiijjjjkkkklllmmmmnnnoooopppqqqrrrssstttuuuuvvvwwwxxxyyyzz+..+
(PID.TID 0003.0001) //    138 ---------aaaaaaaaaaaaaaaabbbbbbbbbcccccccdddddeeeeeefffffgggghhhhiiiijjjjkkkklllmmmmnnnoooopppqqqrrrssstttuuuuvvvwwwxxxyyyzz+..+
(PID.TID 0003.0001) //    137 -----------aaaaaaaaaaaaaabbbbbbbbbcccccccddddddeeeeefffffgggghhhhiiiijjjjkkkkllllmmmnnnoooopppqqqrrrsssttttuuuvvvwwwxxxyyyzz+..+
(PID.TID 0003.0001) //    136 ------------aaaaaaaaaaaaaabbbbbbbbcccccccddddddeeeeefffffgggghhhhhiiiijjjkkkkllllmmmnnnnooopppqqqrrrsssstttuuuvvvwwwxxxyyyzz+..+
(PID.TID 0003.0001) //    135 -------------aaaaaaaaaaaaabbbbbbbbbccccccddddddeeeeefffffggggghhhhiiiijjjjkkkllllmmmnnnnooopppqqqrrrsssstttuuuvvvwwwxxxyyyzz+..+
(PID.TID 0003.0001) //    134 --------------aaaaaaaaaaaaabbbbbbbbcccccccdddddeeeeeeffffggggghhhhiiiijjjjkkkllllmmmnnnnooopppqqqrrrrssstttuuuvvvwwwxxxyyyzz+..+
(PID.TID 0003.0001) //    133 ---------------aaaaaaaaaaaabbbbbbbbcccccccddddddeeeeeffffggggghhhhiiiijjjjkkkllllmmmnnnnooopppqqqrrrrssstttuuuvvvwwwxxxyyyzzz..z
(PID.TID 0003.0001) //    132 ---------------aaaaaaaaaaaabbbbbbbbcccccccddddddeeeeefffffgggghhhhiiiijjjjkkkllllmmmnnnnooopppqqqrrrrssstttuuuvvvwwwxxxyyyzzz..z
(PID.TID 0003.0001) //    131 ----------------aaaaaaaaaaaabbbbbbbbccccccddddddeeeeefffffgggghhhhiiiijjjjkkkklllmmmnnnnooopppqqqrrrrssstttuuuvvvwwwxxxyyyzzz..z
(PID.TID 0003.0001) //    130 ----------------aaaaaaaaaaaabbbbbbbbccccccddddddeeeeefffffgggghhhhiiiijjjjkkkklllmmmmnnnooopppqqqqrrrssstttuuuvvvwwwxxxyyyzzz..z
(PID.TID 0003.0001) //    129 -----------------aaaaaaaaaaabbbbbbbbccccccddddddeeeeefffffgggghhhhiiiijjjjkkkklllmmmmnnnooopppqqqqrrrssstttuuuvvvwwwxxxyyyzzz..z
(PID.TID 0003.0001) //    128 -----------------aaaaaaaaaaabbbbbbbbcccccccdddddeeeeefffffgggghhhhiiiijjjjkkkklllmmmmnnnooopppqqqqrrrssstttuuuvvvwwwxxxyyyzzz..z
(PID.TID 0003.0001) //    127 -----------------aaaaaaaaaaabbbbbbbbcccccccdddddeeeeefffffgggghhhhiiiijjjjkkkklllmmmmnnnooopppqqqqrrrssstttuuuvvvwwwxxxyyyzzz..z
(PID.TID 0003.0001) //    126 -----------------aaaaaaaaaaabbbbbbbbcccccccdddddeeeeefffffgggghhhhiiiijjjjkkkklllmmmmnnnooopppqqqqrrrssstttuuuvvvwwwxxxyyyzzz..z
(PID.TID 0003.0001) //    125 -----------------aaaaaaaaaaabbbbbbbbcccccccdddddeeeeefffffgggghhhhiiiijjjjkkkklllmmmmnnnooopppqqqqrrrssstttuuuvvvwwwxxxyyyzzz..z
(PID.TID 0003.0001) //    124 -----------------aaaaaaaaaaabbbbbbbbcccccccdddddeeeeefffffgggghhhhiiiijjjjkkkklllmmmmnnnooopppqqqqrrrssstttuuuvvvwwwxxxyyyzzz..z
(PID.TID 0003.0001) //    123 -----------------aaaaaaaaaaabbbbbbbbcccccccdddddeeeeefffffgggghhhhiiiijjjjkkkklllmmmmnnnooopppqqqqrrrssstttuuuvvvwwwxxxyyyzzz..z
(PID.TID 0003.0001) // =======================================================
(PID.TID 0003.0001) // END OF FIELD                                          =
(PID.TID 0003.0001) // =======================================================
(PID.TID 0003.0001) 
(PID.TID 0003.0001) // =======================================================
(PID.TID 0003.0001) // Field hFacW at iteration          0
(PID.TID 0003.0001) // CMIN =          9.000040039062500E-01
(PID.TID 0003.0001) // CMAX =          9.999398437500000E-01
(PID.TID 0003.0001) // CINT =          3.701327401620370E-03
(PID.TID 0003.0001) // SYMBOLS (CMIN->CMAX): -abcdefghijklmnopqrstuvwxyz+
(PID.TID 0003.0001) //                  0.0: .
(PID.TID 0003.0001) // RANGE I (Lo:Hi:Step):(   123:   250:     1)
(PID.TID 0003.0001) // RANGE J (Lo:Hi:Step):(   250:   123:    -1)
(PID.TID 0003.0001) // RANGE K (Lo:Hi:Step):(   1:   1:   1)
(PID.TID 0003.0001) // =======================================================
(PID.TID 0003.0001) K =   1
(PID.TID 0003.0001) //                I=132     I=142     I=152     I=162     I=172     I=182     I=192     I=202     I=212     I=222     I=232     I=242
(PID.TID 0003.0001) // |--J--|345678901|345678901|345678901|345678901|345678901|345678901|345678901|345678901|345678901|345678901|345678901|345678901|34567890
(PID.TID 0003.0001) //    250 +++++++++++++++++++++++++++++++++++++++++++++++++++++++++++++++++++++++++++++++++++++++++++++++++++++++++++++++++++++++++++++...
(PID.TID 0003.0001) //    249 ................................................................................................................................
(PID.TID 0003.0001) //    248 ................................................................................................................................
(PID.TID 0003.0001) //    247 +++++++++++++++++++++++++++++++++++++++++++++++++++++++++++++++++++++++++++++++++++++++++++++++++++++++++++++++++++++++++++++...
(PID.TID 0003.0001) //    246 zzzzzzzzzzzzzzzzzzzzzzzzzzzzzzzzzzzzzzzzzzzzzzzzzzzzzzzzzzzzzzzzzzzzzzzzzzzz+++++++++++++++++++++++++++++++++++++++++++++++++...
(PID.TID 0003.0001) //    245 zzzzzzzzzzzzzzzzzzzzzzzzzzzzzzzzzzzzzzzzzzzzzzzzzzzzzzzzzzzzzzzzzzzzzzzzzzzzzzzzzzzzzzzzzzzz+++++++++++++++++++++++++++++++++...
(PID.TID 0003.0001) //    244 yyyyyyyyyyyyyyyyyzzzzzzzzzzzzzzzzzzzzzzzzzzzzzzzzzzzzzzzzzzzzzzzzzzzzzzzzzzzzzzzzzzzzzzzzzzzzzzzzzzz+++++++++++++++++++++++++...
(PID.TID 0003.0001) //    243 yyyyyyyyyyyyyyyyyyyyyyyyyyyyyyyyyyyyyyyyyyyyyyyyyyyyyzzzzzzzzzzzzzzzzzzzzzzzzzzzzzzzzzzzzzzzzzzzzzzzzzzzz++++++++++++++++++++...
(PID.TID 0003.0001) //    242 yyyyyyyyyyyyyyyyyyyyyyyyyyyyyyyyyyyyyyyyyyyyyyyyyyyyyyyyyyyyyyyyyyyyzzzzzzzzzzzzzzzzzzzzzzzzzzzzzzzzzzzzzzzz+++++++++++++++++...
(PID.TID 0003.0001) //    241 xxxxxxxxxxxxxxxxxxyyyyyyyyyyyyyyyyyyyyyyyyyyyyyyyyyyyyyyyyyyyyyyyyyyyyyyyyyyyzzzzzzzzzzzzzzzzzzzzzzzzzzzzzzzzzz++++++++++++++...
(PID.TID 0003.0001) //    240 xxxxxxxxxxxxxxxxxxxxxxxxxxxxxxxxxxxxxxxxxxxxyyyyyyyyyyyyyyyyyyyyyyyyyyyyyyyyyyyyyyyyzzzzzzzzzzzzzzzzzzzzzzzzzzzzz++++++++++++...
(PID.TID 0003.0001) //    239 xxxxxxxxxxxxxxxxxxxxxxxxxxxxxxxxxxxxxxxxxxxxxxxxxxxxxxxxxyyyyyyyyyyyyyyyyyyyyyyyyyyyyyyyyzzzzzzzzzzzzzzzzzzzzzzzzz+++++++++++...
(PID.TID 0003.0001) //    238 wwwwwwwwwwwwwwwwwwxxxxxxxxxxxxxxxxxxxxxxxxxxxxxxxxxxxxxxxxxxxxxxxxyyyyyyyyyyyyyyyyyyyyyyyyyyyzzzzzzzzzzzzzzzzzzzzzzz+++++++++...
(PID.TID 0003.0001) //    237 wwwwwwwwwwwwwwwwwwwwwwwwwwwwwwwwwwwwwwwxxxxxxxxxxxxxxxxxxxxxxxxxxxxxxxxxyyyyyyyyyyyyyyyyyyyyyyyyzzzzzzzzzzzzzzzzzzzzz++++++++...
(PID.TID 0003.0001) //    236 wwwwwwwwwwwwwwwwwwwwwwwwwwwwwwwwwwwwwwwwwwwwwwwwwwxxxxxxxxxxxxxxxxxxxxxxxxxxxyyyyyyyyyyyyyyyyyyyyyzzzzzzzzzzzzzzzzzzz++++++++...
(PID.TID 0003.0001) //    235 vvvvvvvvvvvvvvvvvvwwwwwwwwwwwwwwwwwwwwwwwwwwwwwwwwwwwwwwwwxxxxxxxxxxxxxxxxxxxxxxxyyyyyyyyyyyyyyyyyyyzzzzzzzzzzzzzzzzzz+++++++...
(PID.TID 0003.0001) //    234 vvvvvvvvvvvvvvvvvvvvvvvvvvvvvvvvvvvvwwwwwwwwwwwwwwwwwwwwwwwwwwwwxxxxxxxxxxxxxxxxxxxxxyyyyyyyyyyyyyyyyyzzzzzzzzzzzzzzzzz++++++...
(PID.TID 0003.0001) //    233 vvvvvvvvvvvvvvvvvvvvvvvvvvvvvvvvvvvvvvvvvvvvvvwwwwwwwwwwwwwwwwwwwwwwwxxxxxxxxxxxxxxxxxxxyyyyyyyyyyyyyyyyzzzzzzzzzzzzzzz++++++...
(PID.TID 0003.0001) //    232 uuuuuuuuuuuuuuuuuvvvvvvvvvvvvvvvvvvvvvvvvvvvvvvvvvvvvwwwwwwwwwwwwwwwwwwwwxxxxxxxxxxxxxxxxxyyyyyyyyyyyyyyyzzzzzzzzzzzzzzz+++++...
(PID.TID 0003.0001) //    231 uuuuuuuuuuuuuuuuuuuuuuuuuuuuuuuuuvvvvvvvvvvvvvvvvvvvvvvvvvvwwwwwwwwwwwwwwwwwwxxxxxxxxxxxxxxxyyyyyyyyyyyyyyyzzzzzzzzzzzzz+++++...
(PID.TID 0003.0001) //    230 uuuuuuuuuuuuuuuuuuuuuuuuuuuuuuuuuuuuuuuuuuvvvvvvvvvvvvvvvvvvvvvvwwwwwwwwwwwwwwwwxxxxxxxxxxxxxxyyyyyyyyyyyyyyzzzzzzzzzzzz+++++...
(PID.TID 0003.0001) //    229 ttttttttttttttttuuuuuuuuuuuuuuuuuuuuuuuuuuuuuuuuuvvvvvvvvvvvvvvvvvvvwwwwwwwwwwwwwwwxxxxxxxxxxxxxyyyyyyyyyyyyyzzzzzzzzzzzz++++...
(PID.TID 0003.0001) //    228 tttttttttttttttttttttttttttttttuuuuuuuuuuuuuuuuuuuuuuuvvvvvvvvvvvvvvvvvwwwwwwwwwwwwwwxxxxxxxxxxxxxyyyyyyyyyyyyzzzzzzzzzzz++++...
(PID.TID 0003.0001) //    227 tttttttttttttttttttttttttttttttttttttttuuuuuuuuuuuuuuuuuuuuvvvvvvvvvvvvvvvwwwwwwwwwwwwwxxxxxxxxxxxxyyyyyyyyyyyzzzzzzzzzzz++++...
(PID.TID 0003.0001) //    226 ssssssssssssssstttttttttttttttttttttttttttttttuuuuuuuuuuuuuuuuuvvvvvvvvvvvvvvwwwwwwwwwwwwxxxxxxxxxxxyyyyyyyyyyyzzzzzzzzzzz+++...
(PID.TID 0003.0001) //    225 sssssssssssssssssssssssssssstttttttttttttttttttttttuuuuuuuuuuuuuuuvvvvvvvvvvvvvwwwwwwwwwwwwxxxxxxxxxxyyyyyyyyyyyzzzzzzzzzz+++...
(PID.TID 0003.0001) //    224 sssssssssssssssssssssssssssssssssssssttttttttttttttttttuuuuuuuuuuuuuuvvvvvvvvvvvvwwwwwwwwwwwxxxxxxxxxxxyyyyyyyyyzzzzzzzzzz+++...
(PID.TID 0003.0001) //    223 rrrrrrrrrrrrsssssssssssssssssssssssssssssssttttttttttttttttuuuuuuuuuuuuuvvvvvvvvvvvwwwwwwwwwwwxxxxxxxxxyyyyyyyyyyzzzzzzzzz+++...
(PID.TID 0003.0001) //    222 rrrrrrrrrrrrrrrrrrrrrrrrrrssssssssssssssssssssssttttttttttttttuuuuuuuuuuuuvvvvvvvvvvvwwwwwwwwwwxxxxxxxxxyyyyyyyyyzzzzzzzzz+++...
(PID.TID 0003.0001) //    221 rrrrrrrrrrrrrrrrrrrrrrrrrrrrrrrrrrsssssssssssssssssstttttttttttttuuuuuuuuuuuvvvvvvvvvvvwwwwwwwwwxxxxxxxxxyyyyyyyyyzzzzzzzzz++...
(PID.TID 0003.0001) //    220 qqqqqqqqqrrrrrrrrrrrrrrrrrrrrrrrrrrrrrrrssssssssssssssstttttttttttttuuuuuuuuuuvvvvvvvvvvwwwwwwwwwxxxxxxxxxyyyyyyyyzzzzzzzzz++...
(PID.TID 0003.0001) //    219 qqqqqqqqqqqqqqqqqqqqqqqqrrrrrrrrrrrrrrrrrrrrrsssssssssssssstttttttttttuuuuuuuuuuvvvvvvvvvwwwwwwwwwxxxxxxxxxyyyyyyyyzzzzzzzz++...
(PID.TID 0003.0001) //    218 qqqqqqqqqqqqqqqqqqqqqqqqqqqqqqqqrrrrrrrrrrrrrrrrrsssssssssssstttttttttttuuuuuuuuuuvvvvvvvvvwwwwwwwwxxxxxxxxyyyyyyyyzzzzzzzz++...
(PID.TID 0003.0001) //    217 qqqqqqqqqqqqqqqqqqqqqqqqqqqqqqqqqqqqqrrrrrrrrrrrrrrrssssssssssssttttttttttuuuuuuuuuvvvvvvvvvwwwwwwwwxxxxxxxxyyyyyyyyzzzzzzz++...
(PID.TID 0003.0001) //    216 pppppppppppppppppppppqqqqqqqqqqqqqqqqqqqqqrrrrrrrrrrrrrsssssssssssttttttttttuuuuuuuuuvvvvvvvvwwwwwwwwxxxxxxxyyyyyyyyzzzzzzz++...
(PID.TID 0003.0001) //    215 pppppppppppppppppppppppppppppqqqqqqqqqqqqqqqqqrrrrrrrrrrrrssssssssssttttttttttuuuuuuuuvvvvvvvvwwwwwwwwxxxxxxxyyyyyyyzzzzzzz++...
(PID.TID 0003.0001) //    214 pppppppppppppppppppppppppppppppppppqqqqqqqqqqqqqqrrrrrrrrrrrrssssssssstttttttttuuuuuuuuvvvvvvvvwwwwwwwxxxxxxxyyyyyyyyzzzzzz++...
(PID.TID 0003.0001) //    213 oooooooooooooooooooppppppppppppppppppppqqqqqqqqqqqqqrrrrrrrrrrrssssssssstttttttttuuuuuuuvvvvvvvvwwwwwwwxxxxxxxyyyyyyyzzzzzzz+...
(PID.TID 0003.0001) //    212 oooooooooooooooooooooooooooppppppppppppppppqqqqqqqqqqqqrrrrrrrrrrsssssssssttttttttuuuuuuuvvvvvvvvwwwwwwwxxxxxxyyyyyyyzzzzzzz+...
(PID.TID 0003.0001) //    211 oooooooooooooooooooooooooooooooopppppppppppppppqqqqqqqqqqqrrrrrrrrrssssssssttttttttuuuuuuuvvvvvvvwwwwwwwxxxxxxxyyyyyyzzzzzzz+...
(PID.TID 0003.0001) //    210 nnnnnnnnnnnnnnnoooooooooooooooooooooopppppppppppppqqqqqqqqqqrrrrrrrrrsssssssstttttttuuuuuuuvvvvvvvwwwwwwwxxxxxxyyyyyyyzzzzzz+...
(PID.TID 0003.0001) //    209 nnnnnnnnnnnnnnnnnnnnnnnnooooooooooooooooopppppppppppqqqqqqqqqqrrrrrrrrsssssssstttttttuuuuuuuvvvvvvvwwwwwwxxxxxxxyyyyyyzzzzzz+...
(PID.TID 0003.0001) //    208 nnnnnnnnnnnnnnnnnnnnnnnnnnnnnnoooooooooooooopppppppppppqqqqqqqqqrrrrrrrrssssssstttttttuuuuuuuvvvvvvvwwwwwwxxxxxxyyyyyyzzzzzz+...
(PID.TID 0003.0001) //    207 mmmmmmmmmnnnnnnnnnnnnnnnnnnnnnnnnnoooooooooooooppppppppppqqqqqqqqqrrrrrrrssssssssttttttuuuuuuuvvvvvvwwwwwwxxxxxxyyyyyyzzzzzz+...
(PID.TID 0003.0001) //    206 mmmmmmmmmmmmmmmmmmmmnnnnnnnnnnnnnnnnnnoooooooooooopppppppppqqqqqqqqrrrrrrrrsssssssttttttuuuuuuuvvvvvvwwwwwwxxxxxxyyyyyzzzzzz+...
(PID.TID 0003.0001) //    205 mmmmmmmmmmmmmmmmmmmmmmmmmmmnnnnnnnnnnnnnnooooooooooopppppppppqqqqqqqqrrrrrrrsssssssttttttuuuuuuvvvvvvwwwwwwxxxxxxyyyyyyzzzzz+...
(PID.TID 0003.0001) //    204 mmmmmmmmmmmmmmmmmmmmmmmmmmmmmmmnnnnnnnnnnnnnoooooooooopppppppppqqqqqqqrrrrrrrsssssssttttttuuuuuuvvvvvvwwwwwwxxxxxyyyyyyzzzzz+...
(PID.TID 0003.0001) //    203 llllllllllllllllmmmmmmmmmmmmmmmmmmmnnnnnnnnnnnnoooooooooppppppppqqqqqqqqrrrrrrsssssssttttttuuuuuuvvvvvwwwwwwxxxxxyyyyyyzzzzz+...
(PID.TID 0003.0001) //    202 lllllllllllllllllllllllmmmmmmmmmmmmmmmmnnnnnnnnnnoooooooooppppppppqqqqqqqrrrrrrsssssssttttttuuuuuvvvvvvwwwwwxxxxxxyyyyyzzzzz+...
(PID.TID 0003.0001) //    201 llllllllllllllllllllllllllllmmmmmmmmmmmmmnnnnnnnnnnooooooooopppppppqqqqqqqrrrrrrssssssttttttuuuuuuvvvvvwwwwwwxxxxxyyyyyzzzzz+...
(PID.TID 0003.0001) //    200 kkkkkkkkkkllllllllllllllllllllllmmmmmmmmmmmmnnnnnnnnnoooooooopppppppqqqqqqqrrrrrrssssssttttttuuuuuvvvvvvwwwwwxxxxxyyyyyzzzzz+...
(PID.TID 0003.0001) //    199 kkkkkkkkkkkkkkkkkkklllllllllllllllllmmmmmmmmmmnnnnnnnnnoooooooopppppppqqqqqqrrrrrrssssssttttttuuuuuvvvvvwwwwwxxxxxyyyyyzzzzz+...
(PID.TID 0003.0001) //    198 kkkkkkkkkkkkkkkkkkkkkkkkkllllllllllllllmmmmmmmmmmnnnnnnnnooooooopppppppqqqqqqrrrrrrsssssstttttuuuuuvvvvvvwwwwwxxxxxyyyyyzzzz+...
(PID.TID 0003.0001) //    197 kkkkkkkkkkkkkkkkkkkkkkkkkkkkkllllllllllllmmmmmmmmmmnnnnnnnooooooooppppppqqqqqqrrrrrrsssssttttttuuuuuvvvvvwwwwwxxxxxyyyyyzzzzz...
(PID.TID 0003.0001) //    196 jjjjjjjjjjjjjjkkkkkkkkkkkkkkkkkkklllllllllllmmmmmmmmnnnnnnnnoooooooppppppqqqqqqrrrrrrssssstttttuuuuuvvvvvwwwwwxxxxxyyyyyzzzzz...
(PID.TID 0003.0001) //    195 jjjjjjjjjjjjjjjjjjjjjkkkkkkkkkkkkkkkllllllllllmmmmmmmmnnnnnnnoooooooppppppqqqqqqrrrrrsssssstttttuuuuuvvvvvwwwwxxxxxyyyyyzzzzz...
(PID.TID 0003.0001) //    194 jjjjjjjjjjjjjjjjjjjjjjjjjkkkkkkkkkkkkkllllllllllmmmmmmmmnnnnnnnooooooppppppqqqqqqrrrrrssssstttttuuuuuvvvvvwwwwwxxxxyyyyyzzzzz...
(PID.TID 0003.0001) //    193 jjjjjjjjjjjjjjjjjjjjjjjjjjjjjkkkkkkkkkkkklllllllllmmmmmmmnnnnnnnooooooppppppqqqqqqrrrrrssssstttttuuuuuvvvvwwwwwxxxxxyyyyzzzzz...
(PID.TID 0003.0001) //    192 iiiiiiiiiiiiiiijjjjjjjjjjjjjjjjjkkkkkkkkkkkllllllllmmmmmmmmnnnnnnooooooppppppqqqqqrrrrrssssstttttuuuuuvvvvvwwwwxxxxxyyyyzzzzz...
(PID.TID 0003.0001) //    191 iiiiiiiiiiiiiiiiiiiiijjjjjjjjjjjjjjkkkkkkkkkkllllllllmmmmmmmnnnnnnooooooppppppqqqqqrrrrrssssstttttuuuuvvvvvwwwwxxxxxyyyyzzzzz...
(PID.TID 0003.0001) //    190 iiiiiiiiiiiiiiiiiiiiiiiiijjjjjjjjjjjjjkkkkkkkkklllllllmmmmmmmnnnnnnoooooopppppqqqqqqrrrrrsssstttttuuuuuvvvvwwwwwxxxxyyyyzzzzz...
(PID.TID 0003.0001) //    189 iiiiiiiiiiiiiiiiiiiiiiiiiiiiijjjjjjjjjjjkkkkkkkkllllllllmmmmmmnnnnnnoooooopppppqqqqqrrrrrssssstttttuuuuvvvvvwwwwxxxxyyyyyzzzz...
(PID.TID 0003.0001) //    188 hhhhhhhhhhhhhhhiiiiiiiiiiiiiiiiijjjjjjjjjjkkkkkkkklllllllmmmmmmnnnnnnoooooopppppqqqqqrrrrrsssstttttuuuuvvvvvwwwwxxxxyyyyyzzzz...
(PID.TID 0003.0001) //    187 hhhhhhhhhhhhhhhhhhhhhiiiiiiiiiiiiijjjjjjjjjjkkkkkkklllllllmmmmmmnnnnnnoooooopppppqqqqqrrrrsssssttttuuuuuvvvvwwwwxxxxxyyyyzzzz...
(PID.TID 0003.0001) //    186 hhhhhhhhhhhhhhhhhhhhhhhhiiiiiiiiiiiiijjjjjjjjkkkkkkkkllllllmmmmmmnnnnnnooooopppppqqqqqrrrrrsssstttttuuuuvvvvwwwwxxxxxyyyyzzzz...
(PID.TID 0003.0001) //    185 hhhhhhhhhhhhhhhhhhhhhhhhhhhhiiiiiiiiiiijjjjjjjjkkkkkkklllllllmmmmmnnnnnnooooopppppqqqqqrrrrsssssttttuuuuvvvvvwwwwxxxxyyyyzzzz...
(PID.TID 0003.0001) //    184 gggggggggggggghhhhhhhhhhhhhhhhiiiiiiiiiiijjjjjjjjkkkkkklllllllmmmmmnnnnnnooooopppppqqqqrrrrrssssttttuuuuuvvvvwwwwxxxxyyyyzzzz...
(PID.TID 0003.0001) //    183 ggggggggggggggggggghhhhhhhhhhhhhhiiiiiiiiijjjjjjjjkkkkkkkllllllmmmmmnnnnnooooopppppqqqqqrrrrsssstttttuuuuvvvvwwwwxxxxyyyyzzzz...
(PID.TID 0003.0001) //    182 ggggggggggggggggggggggghhhhhhhhhhhhiiiiiiiiijjjjjjjkkkkkkkllllllmmmmmnnnnnooooopppppqqqqrrrrrssssttttuuuuvvvvwwwwxxxxyyyyzzzz...
(PID.TID 0003.0001) //    181 gggggggggggggggggggggggggghhhhhhhhhhhiiiiiiiijjjjjjjkkkkkkklllllmmmmmmnnnnnoooooppppqqqqqrrrrssssttttuuuuvvvvwwwwxxxxyyyyzzzz...
(PID.TID 0003.0001) //    180 fffffffffffgggggggggggggggggghhhhhhhhhhiiiiiiiijjjjjjjkkkkkklllllmmmmmmnnnnooooopppppqqqqrrrrsssssttttuuuuvvvvwwwxxxxyyyyzzzz...
(PID.TID 0003.0001) //    179 fffffffffffffffffgggggggggggggghhhhhhhhhhiiiiiiijjjjjjjkkkkkklllllmmmmmnnnnnoooooppppqqqqqrrrrssssttttuuuuvvvvwwwwxxxyyyyzzzz...
(PID.TID 0003.0001) //    178 fffffffffffffffffffffgggggggggggghhhhhhhhhiiiiiiijjjjjjjkkkkkklllllmmmmmnnnnnoooopppppqqqqrrrrssssttttuuuuvvvvwwwwxxxxyyyzzzz...
(PID.TID 0003.0001) //    177 ffffffffffffffffffffffffggggggggggghhhhhhhhhiiiiiiijjjjjjkkkkkllllllmmmmmnnnnoooooppppqqqqrrrrssssttttuuuuvvvvwwwwxxxxyyyzzzz...
(PID.TID 0003.0001) //    176 fffffffffffffffffffffffffffgggggggggghhhhhhhhiiiiiiijjjjjjkkkkklllllmmmmmnnnnnoooopppppqqqqrrrrssssttttuuuvvvvwwwwxxxxyyyzzzz...
(PID.TID 0003.0001) //    175 eeeeeeeeeeeeeffffffffffffffffgggggggggghhhhhhhiiiiiiijjjjjjkkkkklllllmmmmmnnnnoooooppppqqqqrrrrssssttttuuuuvvvwwwwxxxxyyyzzzz...
(PID.TID 0003.0001) //    174 eeeeeeeeeeeeeeeeeffffffffffffffggggggggghhhhhhhiiiiiiijjjjjkkkkkklllllmmmmnnnnnooooppppqqqqrrrrssssttttuuuuvvvvwwwxxxxyyyyzzz...
(PID.TID 0003.0001) //    173 eeeeeeeeeeeeeeeeeeeeeffffffffffffgggggggghhhhhhhiiiiiiijjjjjkkkkklllllmmmmmnnnnoooooppppqqqqrrrrsssstttuuuuvvvvwwwxxxxyyyyzzz...
(PID.TID 0003.0001) //    172 eeeeeeeeeeeeeeeeeeeeeeeefffffffffffgggggggghhhhhhhiiiiiijjjjjkkkkklllllmmmmmnnnnooooppppqqqqrrrrssssttttuuuvvvvwwwxxxxyyyyzzz...
(PID.TID 0003.0001) //    171 eeeeeeeeeeeeeeeeeeeeeeeeeeffffffffffgggggggghhhhhhhiiiiijjjjjjkkkkklllllmmmmnnnnoooooppppqqqrrrrssssttttuuuvvvvwwwwxxxyyyyzzz...
(PID.TID 0003.0001) //    170 ddddddddddddeeeeeeeeeeeeeeeeffffffffffggggggghhhhhhiiiiiijjjjjjkkkklllllmmmmmnnnnooooppppqqqqrrrrsssttttuuuuvvvwwwwxxxyyyyzzz...
(PID.TID 0003.0001) //    169 ddddddddddddddddeeeeeeeeeeeeeefffffffffggggggghhhhhhiiiiiijjjjjkkkkklllllmmmmnnnnooooppppqqqqrrrrsssstttuuuuvvvwwwwxxxyyyyzzz...
(PID.TID 0003.0001) //    168 ddddddddddddddddddddeeeeeeeeeeeeffffffffggggggghhhhhhiiiiiijjjjjkkkkkllllmmmmnnnnnooooppppqqqrrrrsssstttuuuuvvvwwwwxxxyyyyzzz...
(PID.TID 0003.0001) //    167 ddddddddddddddddddddddeeeeeeeeeeeffffffffggggggghhhhhhiiiiijjjjjkkkkklllllmmmmnnnnooooppppqqqqrrrssssttttuuuvvvvwwwxxxyyyyzzz...
(PID.TID 0003.0001) //    166 ddddddddddddddddddddddddeeeeeeeeeeefffffffggggggghhhhhhiiiiijjjjjkkkkkllllmmmmnnnnooooppppqqqqrrrrsssttttuuuvvvvwwwxxxyyyyzzz...
(PID.TID 0003.0001) //    165 ccccccddddddddddddddddddddeeeeeeeeeefffffffggggggghhhhhhiiiiijjjjjkkkklllllmmmmnnnnoooopppqqqqrrrrsssttttuuuvvvvwwwxxxxyyyzzz...
(PID.TID 0003.0001) //    164 cccccccccccccdddddddddddddddeeeeeeeeefffffffggggggghhhhhiiiiijjjjjkkkkkllllmmmmnnnnooooppppqqqrrrrsssstttuuuvvvvwwwxxxxyyyzzz...
(PID.TID 0003.0001) //    163 cccccccccccccccccdddddddddddddeeeeeeeefffffffgggggghhhhhhiiiiijjjjjkkkkllllmmmmnnnnooooppppqqqqrrrsssstttuuuuvvvwwwxxxxyyyzzz...
(PID.TID 0003.0001) //    162 cccccccccccccccccccddddddddddddeeeeeeeefffffffgggggghhhhhhiiiiijjjjkkkkkllllmmmmnnnnoooopppqqqqrrrsssstttuuuuvvvwwwxxxxyyyzzz...
(PID.TID 0003.0001) //    161 ccccccccccccccccccccccddddddddddeeeeeeeefffffffgggggghhhhhiiiiijjjjjkkkkllllmmmmnnnnoooopppqqqqrrrrssstttuuuuvvvwwwxxxxyyyzzz...
(PID.TID 0003.0001) //    160 cccccccccccccccccccccccdddddddddddeeeeeeefffffffgggggghhhhhiiiiijjjjkkkklllllmmmmnnnooooppppqqqrrrrsssttttuuuvvvwwwwxxxyyyzzz...
(PID.TID 0003.0001) //    159 cccccccccccccccccccccccccddddddddddeeeeeeefffffffggggghhhhhiiiiijjjjjkkkkllllmmmmnnnnoooppppqqqrrrrsssttttuuuvvvwwwwxxxyyyzzz...
(PID.TID 0003.0001) //    158 bbbbbbbbbbcccccccccccccccccdddddddddeeeeeeeffffffgggggghhhhhiiiiijjjjkkkkllllmmmmnnnnoooopppqqqqrrrsssstttuuuvvvwwwwxxxyyyzzz...
(PID.TID 0003.0001) //    157 bbbbbbbbbbbbbbccccccccccccccdddddddddeeeeeeeffffffggggghhhhhiiiiijjjjkkkkkllllmmmnnnnoooopppqqqqrrrsssstttuuuvvvvwwwxxxyyyzzz...
(PID.TID 0003.0001) //    156 bbbbbbbbbbbbbbbbbccccccccccccdddddddddeeeeeeeffffffggggghhhhhiiiijjjjjkkkkllllmmmmnnnooooppppqqqrrrsssstttuuuvvvvwwwxxxyyyzzz...
(PID.TID 0003.0001) //    155 bbbbbbbbbbbbbbbbbbbccccccccccccddddddddeeeeeeffffffggggghhhhhiiiiijjjjkkkkllllmmmmnnnnoooppppqqqrrrrssstttuuuvvvvwwwxxxyyyzzz...
(PID.TID 0003.0001) //    154 bbbbbbbbbbbbbbbbbbbbbcccccccccccdddddddeeeeeeeffffffggggghhhhhiiiijjjjkkkkklllmmmmnnnnoooppppqqqrrrrssstttuuuuvvvwwwxxxyyyzzz...
(PID.TID 0003.0001) //    153 bbbbbbbbbbbbbbbbbbbbbbcccccccccccdddddddeeeeeeefffffggggghhhhhiiiiijjjjkkkkllllmmmnnnnoooopppqqqqrrrssstttuuuuvvvwwwxxxyyyzzz...
(PID.TID 0003.0001) //    152 bbbbbbbbbbbbbbbbbbbbbbbbccccccccccdddddddeeeeeeffffffggggghhhhiiiiijjjjkkkkllllmmmmnnnoooopppqqqqrrrsssttttuuuvvvwwwxxxyyyzzz...
(PID.TID 0003.0001) //    151 bbbbbbbbbbbbbbbbbbbbbbbbbcccccccccddddddddeeeeeefffffggggghhhhhiiiijjjjkkkkllllmmmmnnnnooopppqqqqrrrsssttttuuuvvvwwwxxxyyyzzz...
(PID.TID 0003.0001) //    150 aaaaaaaaaabbbbbbbbbbbbbbbbcccccccccdddddddeeeeeeffffffggggghhhhiiiiijjjjkkkklllmmmmnnnnoooppppqqqrrrsssttttuuuvvvwwwxxxyyyzzz...
(PID.TID 0003.0001) //    149 aaaaaaaaaaaaabbbbbbbbbbbbbbcccccccccdddddddeeeeeefffffggggghhhhhiiiijjjjkkkkllllmmmnnnnoooppppqqqrrrsssstttuuuvvvwwwxxxyyyzzz...
(PID.TID 0003.0001) //    148 aaaaaaaaaaaaaaabbbbbbbbbbbbbcccccccccddddddeeeeeeffffffgggghhhhhiiiijjjjkkkkllllmmmmnnnoooopppqqqrrrsssstttuuuvvvwwwxxxyyyzzz...
(PID.TID 0003.0001) //    147 aaaaaaaaaaaaaaaaabbbbbbbbbbbbccccccccdddddddeeeeeefffffggggghhhhiiiijjjjkkkkllllmmmmnnnoooopppqqqrrrrssstttuuuvvvwwwxxxyyyzzz...
(PID.TID 0003.0001) //    146 aaaaaaaaaaaaaaaaaaabbbbbbbbbbbccccccccddddddeeeeeefffffggggghhhhiiiiijjjjkkkklllmmmmnnnoooopppqqqrrrrssstttuuuvvvwwwxxxyyyzzz...
(PID.TID 0003.0001) //    145 aaaaaaaaaaaaaaaaaaaabbbbbbbbbbbcccccccdddddddeeeeeefffffgggghhhhhiiiijjjjkkkklllmmmmnnnnooopppqqqqrrrssstttuuuvvvwwwxxxyyyzzz...
(PID.TID 0003.0001) //    144 aaaaaaaaaaaaaaaaaaaaabbbbbbbbbbccccccccddddddeeeeeefffffggggghhhhiiiijjjjkkkkllllmmmnnnnooopppqqqqrrrssstttuuuvvvwwwxxxyyyzzz...
(PID.TID 0003.0001) //    143 aaaaaaaaaaaaaaaaaaaaaabbbbbbbbbbccccccccddddddeeeeefffffggggghhhhiiiijjjjkkkkllllmmmnnnnooopppqqqqrrrssstttuuuvvvwwwxxxyyyzzz...
(PID.TID 0003.0001) //    142 aaaaaaaaaaaaaaaaaaaaaaabbbbbbbbbbcccccccddddddeeeeeefffffgggghhhhhiiiijjjjkkkllllmmmnnnnoooppppqqqrrrssstttuuuvvvwwwxxxyyyzzz...
(PID.TID 0003.0001) //    141 aaaaaaaaaaaaaaaaaaaaaaaabbbbbbbbbcccccccdddddddeeeeefffffgggghhhhhiiiijjjjkkkllllmmmmnnnoooppppqqqrrrssstttuuuvvvwwwxxxyyyzzz...
(PID.TID 0003.0001) //    140 aaaaaaaaaaaaaaaaaaaaaaaaabbbbbbbbbcccccccddddddeeeeefffffggggghhhhiiiijjjjkkkklllmmmmnnnoooopppqqqrrrssstttuuuvvvwwwxxxyyyzzz...
(PID.TID 0003.0001) //    139 --------aaaaaaaaaaaaaaaaabbbbbbbbbcccccccddddddeeeeefffffggggghhhhiiiijjjjkkkklllmmmmnnnoooopppqqqrrrssstttuuuvvvvwwwxxxyyzzz...
(PID.TID 0003.0001) //    138 ----------aaaaaaaaaaaaaaaabbbbbbbbbcccccccdddddeeeeeefffffgggghhhhiiiijjjjkkkklllmmmmnnnoooopppqqqrrrssstttuuuuvvvwwwxxxyyyzz...
(PID.TID 0003.0001) //    137 ------------aaaaaaaaaaaaaabbbbbbbbbcccccccddddddeeeeefffffgggghhhhiiiijjjjkkkkllllmmmnnnoooopppqqqrrrsssttttuuuvvvwwwxxxyyyzz...
(PID.TID 0003.0001) //    136 -------------aaaaaaaaaaaaaabbbbbbbbcccccccddddddeeeeefffffgggghhhhhiiiijjjkkkkllllmmmnnnnooopppqqqrrrsssstttuuuvvvwwwxxxyyyzz...
(PID.TID 0003.0001) //    135 --------------aaaaaaaaaaaaabbbbbbbbbccccccddddddeeeeefffffggggghhhhiiiijjjjkkkllllmmmnnnnooopppqqqrrrsssstttuuuvvvwwwxxxyyyzz...
(PID.TID 0003.0001) //    134 ---------------aaaaaaaaaaaaabbbbbbbbcccccccdddddeeeeeeffffggggghhhhiiiijjjjkkkllllmmmnnnnooopppqqqrrrsssstttuuuvvvwwwxxxyyyzz...
(PID.TID 0003.0001) //    133 ----------------aaaaaaaaaaaabbbbbbbbcccccccddddddeeeeeffffggggghhhhiiiijjjjkkkllllmmmnnnnooopppqqqrrrrssstttuuuvvvwwwxxxyyyzz...
(PID.TID 0003.0001) //    132 ----------------aaaaaaaaaaaabbbbbbbbcccccccddddddeeeeefffffgggghhhhiiiijjjjkkkllllmmmnnnnooopppqqqrrrrssstttuuuvvvwwwxxxyyyzz...
(PID.TID 0003.0001) //    131 -----------------aaaaaaaaaaaabbbbbbbbccccccddddddeeeeefffffgggghhhhiiiijjjjkkkklllmmmnnnnooopppqqqrrrrssstttuuuvvvwwwxxxyyyzz...
(PID.TID 0003.0001) //    130 -----------------aaaaaaaaaaaabbbbbbbbccccccddddddeeeeefffffgggghhhhiiiijjjjkkkklllmmmmnnnooopppqqqqrrrssstttuuuvvvwwwxxxyyyzz...
(PID.TID 0003.0001) //    129 ------------------aaaaaaaaaaabbbbbbbbccccccddddddeeeeefffffgggghhhhiiiijjjjkkkklllmmmmnnnooopppqqqqrrrssstttuuuvvvwwwxxxyyyzz...
(PID.TID 0003.0001) //    128 ------------------aaaaaaaaaaabbbbbbbbccccccddddddeeeeefffffgggghhhhiiiijjjjkkkklllmmmmnnnooopppqqqqrrrssstttuuuvvvwwwxxxyyyzz...
(PID.TID 0003.0001) //    127 ------------------aaaaaaaaaaabbbbbbbbcccccccdddddeeeeefffffgggghhhhiiiijjjjkkkklllmmmmnnnooopppqqqqrrrssstttuuuvvvwwwxxxyyyzz...
(PID.TID 0003.0001) //    126 ------------------aaaaaaaaaaabbbbbbbbcccccccdddddeeeeefffffgggghhhhiiiijjjjkkkklllmmmmnnnooopppqqqqrrrssstttuuuvvvwwwxxxyyyzz...
(PID.TID 0003.0001) //    125 ------------------aaaaaaaaaaabbbbbbbbcccccccdddddeeeeefffffgggghhhhiiiijjjjkkkklllmmmmnnnooopppqqqqrrrssstttuuuvvvwwwxxxyyyzz...
(PID.TID 0003.0001) //    124 ------------------aaaaaaaaaaabbbbbbbbcccccccdddddeeeeefffffgggghhhhiiiijjjjkkkklllmmmmnnnooopppqqqqrrrssstttuuuvvvwwwxxxyyyzz...
(PID.TID 0003.0001) //    123 ------------------aaaaaaaaaaabbbbbbbbcccccccdddddeeeeefffffgggghhhhiiiijjjjkkkklllmmmmnnnooopppqqqqrrrssstttuuuvvvwwwxxxyyyzz...
(PID.TID 0003.0001) // =======================================================
(PID.TID 0003.0001) // END OF FIELD                                          =
(PID.TID 0003.0001) // =======================================================
(PID.TID 0003.0001) 
(PID.TID 0003.0001) // =======================================================
(PID.TID 0003.0001) // Field hFacS at iteration          0
(PID.TID 0003.0001) // CMIN =          9.000040039062500E-01
(PID.TID 0003.0001) // CMAX =          9.999398437500000E-01
(PID.TID 0003.0001) // CINT =          3.701327401620370E-03
(PID.TID 0003.0001) // SYMBOLS (CMIN->CMAX): -abcdefghijklmnopqrstuvwxyz+
(PID.TID 0003.0001) //                  0.0: .
(PID.TID 0003.0001) // RANGE I (Lo:Hi:Step):(   123:   250:     1)
(PID.TID 0003.0001) // RANGE J (Lo:Hi:Step):(   250:   123:    -1)
(PID.TID 0003.0001) // RANGE K (Lo:Hi:Step):(   1:   1:   1)
(PID.TID 0003.0001) // =======================================================
(PID.TID 0003.0001) K =   1
(PID.TID 0003.0001) //                I=132     I=142     I=152     I=162     I=172     I=182     I=192     I=202     I=212     I=222     I=232     I=242
(PID.TID 0003.0001) // |--J--|345678901|345678901|345678901|345678901|345678901|345678901|345678901|345678901|345678901|345678901|345678901|345678901|34567890
(PID.TID 0003.0001) //    250 ................................................................................................................................
(PID.TID 0003.0001) //    249 ................................................................................................................................
(PID.TID 0003.0001) //    248 ................................................................................................................................
(PID.TID 0003.0001) //    247 zzzzzzzzzzzzzzzzzzzzzzzzzzzzzzzzzzzzzzzzzzzzzzzzzzzzzzzzzzzzzzzzzzzzzzzzzzz++++++++++++++++++++++++++++++++++++++++++++++++++..+
(PID.TID 0003.0001) //    246 zzzzzzzzzzzzzzzzzzzzzzzzzzzzzzzzzzzzzzzzzzzzzzzzzzzzzzzzzzzzzzzzzzzzzzzzzzzzzzzzzzzzzzzzzzz++++++++++++++++++++++++++++++++++..+
(PID.TID 0003.0001) //    245 yyyyyyyyyyyyyyyyzzzzzzzzzzzzzzzzzzzzzzzzzzzzzzzzzzzzzzzzzzzzzzzzzzzzzzzzzzzzzzzzzzzzzzzzzzzzzzzzzzz++++++++++++++++++++++++++..+
(PID.TID 0003.0001) //    244 yyyyyyyyyyyyyyyyyyyyyyyyyyyyyyyyyyyyyyyyyyyyyyyyyyyyzzzzzzzzzzzzzzzzzzzzzzzzzzzzzzzzzzzzzzzzzzzzzzzzzzzz+++++++++++++++++++++..+
(PID.TID 0003.0001) //    243 yyyyyyyyyyyyyyyyyyyyyyyyyyyyyyyyyyyyyyyyyyyyyyyyyyyyyyyyyyyyyyyyyyyzzzzzzzzzzzzzzzzzzzzzzzzzzzzzzzzzzzzzzzz++++++++++++++++++..+
(PID.TID 0003.0001) //    242 xxxxxxxxxxxxxxxxxyyyyyyyyyyyyyyyyyyyyyyyyyyyyyyyyyyyyyyyyyyyyyyyyyyyyyyyyyyyzzzzzzzzzzzzzzzzzzzzzzzzzzzzzzzzzz+++++++++++++++..+
(PID.TID 0003.0001) //    241 xxxxxxxxxxxxxxxxxxxxxxxxxxxxxxxxxxxxxxxxxxxyyyyyyyyyyyyyyyyyyyyyyyyyyyyyyyyyyyyyyyyzzzzzzzzzzzzzzzzzzzzzzzzzzzzz+++++++++++++..+
(PID.TID 0003.0001) //    240 xxxxxxxxxxxxxxxxxxxxxxxxxxxxxxxxxxxxxxxxxxxxxxxxxxxxxxxxyyyyyyyyyyyyyyyyyyyyyyyyyyyyyyyyzzzzzzzzzzzzzzzzzzzzzzzzz++++++++++++..+
(PID.TID 0003.0001) //    239 wwwwwwwwwwwwwwwwwxxxxxxxxxxxxxxxxxxxxxxxxxxxxxxxxxxxxxxxxxxxxxxxxyyyyyyyyyyyyyyyyyyyyyyyyyyyzzzzzzzzzzzzzzzzzzzzzzz++++++++++..+
(PID.TID 0003.0001) //    238 wwwwwwwwwwwwwwwwwwwwwwwwwwwwwwwwwwwwwwxxxxxxxxxxxxxxxxxxxxxxxxxxxxxxxxxyyyyyyyyyyyyyyyyyyyyyyyyzzzzzzzzzzzzzzzzzzzzz+++++++++..+
(PID.TID 0003.0001) //    237 wwwwwwwwwwwwwwwwwwwwwwwwwwwwwwwwwwwwwwwwwwwwwwwwwxxxxxxxxxxxxxxxxxxxxxxxxxxxyyyyyyyyyyyyyyyyyyyyyzzzzzzzzzzzzzzzzzzz+++++++++..+
(PID.TID 0003.0001) //    236 vvvvvvvvvvvvvvvvvwwwwwwwwwwwwwwwwwwwwwwwwwwwwwwwwwwwwwwwwxxxxxxxxxxxxxxxxxxxxxxxyyyyyyyyyyyyyyyyyyyzzzzzzzzzzzzzzzzzz++++++++..+
(PID.TID 0003.0001) //    235 vvvvvvvvvvvvvvvvvvvvvvvvvvvvvvvvvvvwwwwwwwwwwwwwwwwwwwwwwwwwwwwxxxxxxxxxxxxxxxxxxxxxyyyyyyyyyyyyyyyyyzzzzzzzzzzzzzzzzz+++++++..+
(PID.TID 0003.0001) //    234 vvvvvvvvvvvvvvvvvvvvvvvvvvvvvvvvvvvvvvvvvvvvvwwwwwwwwwwwwwwwwwwwwwwwxxxxxxxxxxxxxxxxxxxyyyyyyyyyyyyyyyyzzzzzzzzzzzzzzz+++++++..+
(PID.TID 0003.0001) //    233 uuuuuuuuuuuuuuuuvvvvvvvvvvvvvvvvvvvvvvvvvvvvvvvvvvvvwwwwwwwwwwwwwwwwwwwwxxxxxxxxxxxxxxxxxyyyyyyyyyyyyyyyzzzzzzzzzzzzzzz++++++..+
[...]
(PID.TID 0003.0001)     ;
(PID.TID 0003.0001) dyU =  /* dyU(:,1,:,1) ( units: m ) */
(PID.TID 0003.0001)   124 @  5.000000000000000E+03              /* I =  1:124 */
(PID.TID 0003.0001)     ;
(PID.TID 0003.0001) dyU =  /* dyU(1,:,1,:) ( units: m ) */
(PID.TID 0003.0001)   124 @  5.000000000000000E+03              /* J =  1:124 */
(PID.TID 0003.0001)     ;
(PID.TID 0003.0001) rA  =  /* rA (:,1,:,1) ( units: m^2 ) */
(PID.TID 0003.0001)   124 @  2.500000000000000E+07              /* I =  1:124 */
(PID.TID 0003.0001)     ;
(PID.TID 0003.0001) rA  =  /* rA (1,:,1,:) ( units: m^2 ) */
(PID.TID 0003.0001)   124 @  2.500000000000000E+07              /* J =  1:124 */
(PID.TID 0003.0001)     ;
(PID.TID 0003.0001) rAw =  /* rAw(:,1,:,1) ( units: m^2 ) */
(PID.TID 0003.0001)   124 @  2.500000000000000E+07              /* I =  1:124 */
(PID.TID 0003.0001)     ;
(PID.TID 0003.0001) rAw =  /* rAw(1,:,1,:) ( units: m^2 ) */
(PID.TID 0003.0001)   124 @  2.500000000000000E+07              /* J =  1:124 */
(PID.TID 0003.0001)     ;
(PID.TID 0003.0001) rAs =  /* rAs(:,1,:,1) ( units: m^2 ) */
(PID.TID 0003.0001)   124 @  2.500000000000000E+07              /* I =  1:124 */
(PID.TID 0003.0001)     ;
(PID.TID 0003.0001) rAs =  /* rAs(1,:,1,:) ( units: m^2 ) */
(PID.TID 0003.0001)   124 @  2.500000000000000E+07              /* J =  1:124 */
(PID.TID 0003.0001)     ;
(PID.TID 0003.0001) globalArea = /* Integrated horizontal Area (m^2) */
(PID.TID 0003.0001)                 1.512900000000000E+12
(PID.TID 0003.0001)     ;
(PID.TID 0003.0001) // =======================================================
(PID.TID 0003.0001) // End of Model config. summary
(PID.TID 0003.0001) // =======================================================
(PID.TID 0003.0001) 
(PID.TID 0003.0001) == Packages configuration : Check & print summary ==
(PID.TID 0003.0001) 
(PID.TID 0003.0001) // =======================================================
(PID.TID 0003.0001) // Check Model config. (CONFIG_CHECK):
(PID.TID 0003.0001) // CONFIG_CHECK : Normal End
(PID.TID 0003.0001) // =======================================================
(PID.TID 0003.0001) 
(PID.TID 0003.0001) Start initial hydrostatic pressure computation
(PID.TID 0003.0001) Pressure is predetermined for buoyancyRelation OCEANIC
(PID.TID 0003.0001) 
(PID.TID 0003.0001) // =======================================================
(PID.TID 0003.0001) // Model current state
(PID.TID 0003.0001) // =======================================================
(PID.TID 0003.0001) 
(PID.TID 0003.0001) SOLVE_FOR_PRESSURE: putPmEinXvector =    F
 cg2d: Sum(rhs),rhsMax =   0.00000000000000E+00  9.73592635192475E-05
 cg2d: Sum(rhs),rhsMax =   8.24229573481716E-13  1.15786318361866E-04
 cg2d: Sum(rhs),rhsMax =   3.06243919112603E-12  1.40965044910048E-04
 cg2d: Sum(rhs),rhsMax =   4.67537120130146E-12  1.66424792285971E-04
 cg2d: Sum(rhs),rhsMax =  -4.27036184191820E-12  1.93531974506246E-04
 cg2d: Sum(rhs),rhsMax =  -9.33653154788772E-12  2.21051268892998E-04
 cg2d: Sum(rhs),rhsMax =  -7.87281351222191E-12  2.48418964895491E-04
 cg2d: Sum(rhs),rhsMax =  -8.15703060652595E-12  2.75497529609692E-04
 cg2d: Sum(rhs),rhsMax =  -9.61719592851296E-12  3.02245044066557E-04
 cg2d: Sum(rhs),rhsMax =  -1.07185371689411E-11  3.28652306993531E-04
 cg2d: Sum(rhs),rhsMax =  -1.04414255019947E-11  3.54730592727831E-04
 cg2d: Sum(rhs),rhsMax =  -1.09139364212751E-11  3.80522708237529E-04
 cg2d: Sum(rhs),rhsMax =  -1.42303946404354E-11  4.06041333538053E-04
 cg2d: Sum(rhs),rhsMax =  -1.69091407542510E-11  4.31321752116575E-04
 cg2d: Sum(rhs),rhsMax =  -2.14672724041520E-11  4.56392661603088E-04
 cg2d: Sum(rhs),rhsMax =  -2.15560902461220E-11  4.81277303503287E-04
(PID.TID 0003.0001)      cg2d_init_res =   9.56895098468310E-01
(PID.TID 0003.0001)      cg2d_iters(min,last) =      -1     579
(PID.TID 0003.0001)      cg2d_last_res =   9.58646616995533E-08
 cg2d: Sum(rhs),rhsMax =  -2.31317187626701E-11  5.06007244526225E-04
 cg2d: Sum(rhs),rhsMax =  -2.71542788254919E-11  5.30609139322489E-04
 cg2d: Sum(rhs),rhsMax =  -3.46247475135897E-11  5.55079243039223E-04
 cg2d: Sum(rhs),rhsMax =  -3.46966899655854E-11  5.79477159384276E-04
 cg2d: Sum(rhs),rhsMax =  -3.68061137123732E-11  6.03774869058215E-04
 cg2d: Sum(rhs),rhsMax =  -3.90407706163387E-11  6.28024247329852E-04
 cg2d: Sum(rhs),rhsMax =  -4.37951896969935E-11  6.52216354240634E-04
 cg2d: Sum(rhs),rhsMax =  -4.69266847602512E-11  6.76356265774115E-04
 cg2d: Sum(rhs),rhsMax =  -5.08562081336095E-11  7.00492772370714E-04
 cg2d: Sum(rhs),rhsMax =  -5.45310463451187E-11  7.24602151638976E-04
 cg2d: Sum(rhs),rhsMax =  -6.48265885416777E-11  7.48693567570007E-04
 cg2d: Sum(rhs),rhsMax =  -6.85003165301623E-11  7.72781277207900E-04
 cg2d: Sum(rhs),rhsMax =  -7.59747820211487E-11  7.96893276050346E-04
 cg2d: Sum(rhs),rhsMax =  -8.07878208775037E-11  8.21011580226213E-04
 cg2d: Sum(rhs),rhsMax =  -8.40554292835805E-11  8.45142853744120E-04
 cg2d: Sum(rhs),rhsMax =  -8.81179573752888E-11  8.69293069792758E-04
(PID.TID 0003.0001)      cg2d_init_res =   4.85972645987831E-01
(PID.TID 0003.0001)      cg2d_iters(min,last) =      -1     578
(PID.TID 0003.0001)      cg2d_last_res =   9.53391462727624E-08
 cg2d: Sum(rhs),rhsMax =  -9.16191567057467E-11  8.93467581210172E-04
 cg2d: Sum(rhs),rhsMax =  -1.00958352788894E-10  9.17679467319540E-04
 cg2d: Sum(rhs),rhsMax =  -1.06801678612101E-10  9.41937152254738E-04
 cg2d: Sum(rhs),rhsMax =  -1.09753983679184E-10  9.66231248955807E-04
 cg2d: Sum(rhs),rhsMax =  -1.16084919454806E-10  9.90565162567292E-04
 cg2d: Sum(rhs),rhsMax =  -1.22273746683277E-10  1.01494191865982E-03
 cg2d: Sum(rhs),rhsMax =  -1.27549526496296E-10  1.03936419711467E-03
 cg2d: Sum(rhs),rhsMax =  -1.36337163780809E-10  1.06383436077117E-03
 cg2d: Sum(rhs),rhsMax =  -1.40556011274384E-10  1.08835448174433E-03
 cg2d: Sum(rhs),rhsMax =  -1.47149847862238E-10  1.11292636475254E-03
 cg2d: Sum(rhs),rhsMax =  -1.52180490431419E-10  1.13755156808102E-03
 cg2d: Sum(rhs),rhsMax =  -1.58467017286057E-10  1.16223142240936E-03
 cg2d: Sum(rhs),rhsMax =  -1.69169567243443E-10  1.18696704777579E-03
 cg2d: Sum(rhs),rhsMax =  -1.74717129652890E-10  1.21175936889824E-03
 cg2d: Sum(rhs),rhsMax =  -1.85130133445455E-10  1.23660912903874E-03
 cg2d: Sum(rhs),rhsMax =  -1.97136529322961E-10  1.26151690258250E-03
(PID.TID 0003.0001)      cg2d_init_res =   3.37729072211182E-01
(PID.TID 0003.0001)      cg2d_iters(min,last) =      -1     577
(PID.TID 0003.0001)      cg2d_last_res =   9.55987890802906E-08
 cg2d: Sum(rhs),rhsMax =  -2.03847605462215E-10  1.28648310647334E-03
 cg2d: Sum(rhs),rhsMax =  -2.09841033438352E-10  1.31150965628625E-03
 cg2d: Sum(rhs),rhsMax =  -2.18602025370274E-10  1.33659504701162E-03
 cg2d: Sum(rhs),rhsMax =  -2.27357688231677E-10  1.36173821821337E-03
 cg2d: Sum(rhs),rhsMax =  -2.34685160194203E-10  1.38693903477899E-03
 cg2d: Sum(rhs),rhsMax =  -2.44266828985928E-10  1.41219724792836E-03
 cg2d: Sum(rhs),rhsMax =  -2.54996024295906E-10  1.43751332423225E-03
 cg2d: Sum(rhs),rhsMax =  -2.68851607643228E-10  1.46288896801097E-03
 cg2d: Sum(rhs),rhsMax =  -2.82476264601428E-10  1.48832179118682E-03
 cg2d: Sum(rhs),rhsMax =  -2.94839708203654E-10  1.51381117199430E-03
 cg2d: Sum(rhs),rhsMax =  -3.07394998344535E-10  1.53935640307279E-03
 cg2d: Sum(rhs),rhsMax =  -3.22337712077569E-10  1.56495669737281E-03
 cg2d: Sum(rhs),rhsMax =  -3.34750893671298E-10  1.59061119208227E-03
 cg2d: Sum(rhs),rhsMax =  -3.49437812019460E-10  1.61631895257807E-03
 cg2d: Sum(rhs),rhsMax =  -3.62799568165428E-10  1.64207897613171E-03
 cg2d: Sum(rhs),rhsMax =  -3.79223763502523E-10  1.66789019536307E-03
(PID.TID 0003.0001)      cg2d_init_res =   2.64699860515211E-01
(PID.TID 0003.0001)      cg2d_iters(min,last) =      -1     576
(PID.TID 0003.0001)      cg2d_last_res =   9.73474817421977E-08
 cg2d: Sum(rhs),rhsMax =  -3.95260713048629E-10  1.69375148148205E-03
 cg2d: Sum(rhs),rhsMax =  -4.09656308875128E-10  1.71966164732652E-03
 cg2d: Sum(rhs),rhsMax =  -4.23128199145140E-10  1.74561945021870E-03
 cg2d: Sum(rhs),rhsMax =  -4.37783143070192E-10  1.77162359465369E-03
 cg2d: Sum(rhs),rhsMax =  -4.55603554883055E-10  1.79767273483295E-03
 cg2d: Sum(rhs),rhsMax =  -4.67057503783508E-10  1.82376547705769E-03
 cg2d: Sum(rhs),rhsMax =  -4.85563589336380E-10  1.84990038199163E-03
 cg2d: Sum(rhs),rhsMax =  -5.02215158348918E-10  1.87607596680493E-03
 cg2d: Sum(rhs),rhsMax =  -5.18603826549224E-10  1.90229070720674E-03
 cg2d: Sum(rhs),rhsMax =  -5.37259126076606E-10  1.92854303937828E-03
 cg2d: Sum(rhs),rhsMax =  -5.53889378807071E-10  1.95483136180995E-03
 cg2d: Sum(rhs),rhsMax =  -5.68434188608080E-10  1.98115403705281E-03
 cg2d: Sum(rhs),rhsMax =  -5.86403814395453E-10  2.00752587082928E-03
 cg2d: Sum(rhs),rhsMax =  -6.05485439564291E-10  2.03394073657628E-03
 cg2d: Sum(rhs),rhsMax =  -6.24304163920897E-10  2.06038639718327E-03
 cg2d: Sum(rhs),rhsMax =  -6.43879616291088E-10  2.08686110612999E-03
(PID.TID 0003.0001)      cg2d_init_res =   2.19609124255652E-01
(PID.TID 0003.0001)      cg2d_iters(min,last) =      -1     576
(PID.TID 0003.0001)      cg2d_last_res =   9.22917252430144E-08
 cg2d: Sum(rhs),rhsMax =  -6.60815402397930E-10  2.11336308853065E-03
 cg2d: Sum(rhs),rhsMax =  -6.82476297697576E-10  2.13989054247678E-03
 cg2d: Sum(rhs),rhsMax =  -7.00300262224118E-10  2.16644164032873E-03
 cg2d: Sum(rhs),rhsMax =  -7.23385795708964E-10  2.19301452996064E-03
 cg2d: Sum(rhs),rhsMax =  -7.40637773333219E-10  2.21960733595846E-03
 cg2d: Sum(rhs),rhsMax =  -7.67482077890236E-10  2.24621816062786E-03
 cg2d: Sum(rhs),rhsMax =  -7.97612642600143E-10  2.27284508570010E-03
 cg2d: Sum(rhs),rhsMax =  -8.24744716965142E-10  2.29948766244473E-03
 cg2d: Sum(rhs),rhsMax =  -8.54623039003855E-10  2.32618267403502E-03
 cg2d: Sum(rhs),rhsMax =  -8.83538575635612E-10  2.35288966769175E-03
 cg2d: Sum(rhs),rhsMax =  -9.12795172780534E-10  2.37960666920079E-03
 cg2d: Sum(rhs),rhsMax =  -9.45075129266115E-10  2.40633168819214E-03
 cg2d: Sum(rhs),rhsMax =  -9.74171854295491E-10  2.43306271922269E-03
 cg2d: Sum(rhs),rhsMax =  -1.00896713206566E-09  2.45979774254615E-03
 cg2d: Sum(rhs),rhsMax =  -1.04470032624704E-09  2.48653472508966E-03
 cg2d: Sum(rhs),rhsMax =  -1.08178710434004E-09  2.51327162123251E-03
(PID.TID 0003.0001)      cg2d_init_res =   1.87716469922485E-01
(PID.TID 0003.0001)      cg2d_iters(min,last) =      -1     575
(PID.TID 0003.0001)      cg2d_last_res =   9.61708341535157E-08
 cg2d: Sum(rhs),rhsMax =  -1.11730713570068E-09  2.54000637369982E-03
 cg2d: Sum(rhs),rhsMax =  -1.15448983706301E-09  2.56676770177390E-03
 cg2d: Sum(rhs),rhsMax =  -1.19643317475493E-09  2.59354702156961E-03
 cg2d: Sum(rhs),rhsMax =  -1.23629462223107E-09  2.62031989153430E-03
(PID.TID 0003.0001) %CHECKPOINT       100 ckptA
(PID.TID 0003.0001)   Seconds in section "ALL                    [THE_MODEL_MAIN]":
(PID.TID 0003.0001)           User time:   535.115383714437
(PID.TID 0003.0001)         System time:  0.000000000000000E+000
(PID.TID 0003.0001)     Wall clock time:   599.426502943039
(PID.TID 0003.0001)          No. starts:           1
(PID.TID 0003.0001)           No. stops:           1
(PID.TID 0003.0001)   Seconds in section "INITIALISE_FIXED       [THE_MODEL_MAIN]":
(PID.TID 0003.0001)           User time:  0.183432005345821
(PID.TID 0003.0001)         System time:  0.000000000000000E+000
(PID.TID 0003.0001)     Wall clock time:  0.228453159332275
(PID.TID 0003.0001)          No. starts:           1
(PID.TID 0003.0001)           No. stops:           1
(PID.TID 0003.0001)   Seconds in section "THE_MAIN_LOOP          [THE_MODEL_MAIN]":
(PID.TID 0003.0001)           User time:   534.931915715337
(PID.TID 0003.0001)         System time:  0.000000000000000E+000
(PID.TID 0003.0001)     Wall clock time:   599.198004007339
(PID.TID 0003.0001)          No. starts:           1
(PID.TID 0003.0001)           No. stops:           1
(PID.TID 0003.0001)   Seconds in section "INITIALISE_VARIA    [THE_MAIN_LOOP]":
(PID.TID 0003.0001)           User time:  0.105938002467155
(PID.TID 0003.0001)         System time:  0.000000000000000E+000
(PID.TID 0003.0001)     Wall clock time:  0.118172168731689
(PID.TID 0003.0001)          No. starts:           1
(PID.TID 0003.0001)           No. stops:           1
(PID.TID 0003.0001)   Seconds in section "MAIN LOOP           [THE_MAIN_LOOP]":
(PID.TID 0003.0001)           User time:   534.825952708721
(PID.TID 0003.0001)         System time:  0.000000000000000E+000
(PID.TID 0003.0001)     Wall clock time:   599.079794168472
(PID.TID 0003.0001)          No. starts:           1
(PID.TID 0003.0001)           No. stops:           1
(PID.TID 0003.0001)   Seconds in section "MAIN_DO_LOOP        [THE_MAIN_LOOP]":
(PID.TID 0003.0001)           User time:   534.825014770031
(PID.TID 0003.0001)         System time:  0.000000000000000E+000
(PID.TID 0003.0001)     Wall clock time:   599.078742980957
(PID.TID 0003.0001)          No. starts:         100
(PID.TID 0003.0001)           No. stops:         100
(PID.TID 0003.0001)   Seconds in section "FORWARD_STEP        [MAIN_DO_LOOP]":
(PID.TID 0003.0001)           User time:   534.822881698608
(PID.TID 0003.0001)         System time:  0.000000000000000E+000
(PID.TID 0003.0001)     Wall clock time:   599.076611280441
(PID.TID 0003.0001)          No. starts:         100
(PID.TID 0003.0001)           No. stops:         100
(PID.TID 0003.0001)   Seconds in section "LOAD_FIELDS_DRIVER  [FORWARD_STEP]":
(PID.TID 0003.0001)           User time:  3.283798694610596E-003
(PID.TID 0003.0001)         System time:  0.000000000000000E+000
(PID.TID 0003.0001)     Wall clock time:  3.183603286743164E-003
(PID.TID 0003.0001)          No. starts:         100
(PID.TID 0003.0001)           No. stops:         100
(PID.TID 0003.0001)   Seconds in section "EXTERNAL_FLDS_LOAD [LOAD_FLDS_DRIVER]":
(PID.TID 0003.0001)           User time:  1.417458057403564E-003
(PID.TID 0003.0001)         System time:  0.000000000000000E+000
(PID.TID 0003.0001)     Wall clock time:  1.054763793945312E-003
(PID.TID 0003.0001)          No. starts:         100
(PID.TID 0003.0001)           No. stops:         100
(PID.TID 0003.0001)   Seconds in section "DO_ATMOSPHERIC_PHYS [FORWARD_STEP]":
(PID.TID 0003.0001)           User time:  1.281082630157471E-003
(PID.TID 0003.0001)         System time:  0.000000000000000E+000
(PID.TID 0003.0001)     Wall clock time:  1.063585281372070E-003
(PID.TID 0003.0001)          No. starts:         100
(PID.TID 0003.0001)           No. stops:         100
(PID.TID 0003.0001)   Seconds in section "DO_OCEANIC_PHYS     [FORWARD_STEP]":
(PID.TID 0003.0001)           User time:  0.100530773401260
(PID.TID 0003.0001)         System time:  0.000000000000000E+000
(PID.TID 0003.0001)     Wall clock time:  0.103837251663208
(PID.TID 0003.0001)          No. starts:         100
(PID.TID 0003.0001)           No. stops:         100
(PID.TID 0003.0001)   Seconds in section "THERMODYNAMICS      [FORWARD_STEP]":
(PID.TID 0003.0001)           User time:   2.95985549688339
(PID.TID 0003.0001)         System time:  0.000000000000000E+000
(PID.TID 0003.0001)     Wall clock time:   3.36582541465759
(PID.TID 0003.0001)          No. starts:         100
(PID.TID 0003.0001)           No. stops:         100
(PID.TID 0003.0001)   Seconds in section "DYNAMICS            [FORWARD_STEP]":
(PID.TID 0003.0001)           User time:  0.536764025688171
(PID.TID 0003.0001)         System time:  0.000000000000000E+000
(PID.TID 0003.0001)     Wall clock time:  0.553323268890381
(PID.TID 0003.0001)          No. starts:         100
(PID.TID 0003.0001)           No. stops:         100
(PID.TID 0003.0001)   Seconds in section "SOLVE_FOR_PRESSURE  [FORWARD_STEP]":
(PID.TID 0003.0001)           User time:   490.058979451656
(PID.TID 0003.0001)         System time:  0.000000000000000E+000
(PID.TID 0003.0001)     Wall clock time:   548.747888088226
(PID.TID 0003.0001)          No. starts:         100
(PID.TID 0003.0001)           No. stops:         100
(PID.TID 0003.0001)   Seconds in section "MOM_CORRECTION_STEP [FORWARD_STEP]":
(PID.TID 0003.0001)           User time:  3.803753852844238E-002
(PID.TID 0003.0001)         System time:  0.000000000000000E+000
(PID.TID 0003.0001)     Wall clock time:  3.930616378784180E-002
(PID.TID 0003.0001)          No. starts:         100
(PID.TID 0003.0001)           No. stops:         100
(PID.TID 0003.0001)   Seconds in section "INTEGR_CONTINUITY   [FORWARD_STEP]":
(PID.TID 0003.0001)           User time:  2.305880188941956E-002
(PID.TID 0003.0001)         System time:  0.000000000000000E+000
(PID.TID 0003.0001)     Wall clock time:  2.542710304260254E-002
(PID.TID 0003.0001)          No. starts:         100
(PID.TID 0003.0001)           No. stops:         100
(PID.TID 0003.0001)   Seconds in section "TRC_CORRECTION_STEP [FORWARD_STEP]":
(PID.TID 0003.0001)           User time:  1.045346260070801E-003
(PID.TID 0003.0001)         System time:  0.000000000000000E+000
(PID.TID 0003.0001)     Wall clock time:  1.094818115234375E-003
(PID.TID 0003.0001)          No. starts:         100
(PID.TID 0003.0001)           No. stops:         100
(PID.TID 0003.0001)   Seconds in section "BLOCKING_EXCHANGES  [FORWARD_STEP]":
(PID.TID 0003.0001)           User time:   29.7963889539242
(PID.TID 0003.0001)         System time:  0.000000000000000E+000
(PID.TID 0003.0001)     Wall clock time:   33.5105125904083
(PID.TID 0003.0001)          No. starts:         100
(PID.TID 0003.0001)           No. stops:         100
(PID.TID 0003.0001)   Seconds in section "MONITOR             [FORWARD_STEP]":
(PID.TID 0003.0001)           User time:   11.1674791276455
(PID.TID 0003.0001)         System time:  0.000000000000000E+000
(PID.TID 0003.0001)     Wall clock time:   12.5442657470703
(PID.TID 0003.0001)          No. starts:         100
(PID.TID 0003.0001)           No. stops:         100
(PID.TID 0003.0001)   Seconds in section "DO_THE_MODEL_IO     [FORWARD_STEP]":
(PID.TID 0003.0001)           User time:  5.808448791503906E-002
(PID.TID 0003.0001)         System time:  0.000000000000000E+000
(PID.TID 0003.0001)     Wall clock time:  7.005310058593750E-002
(PID.TID 0003.0001)          No. starts:         100
(PID.TID 0003.0001)           No. stops:         100
(PID.TID 0003.0001)   Seconds in section "DO_WRITE_PICKUP     [FORWARD_STEP]":
(PID.TID 0003.0001)           User time:  6.349420547485352E-002
(PID.TID 0003.0001)         System time:  0.000000000000000E+000
(PID.TID 0003.0001)     Wall clock time:  9.541130065917969E-002
(PID.TID 0003.0001)          No. starts:         100
(PID.TID 0003.0001)           No. stops:         100
(PID.TID 0003.0001) // ======================================================
(PID.TID 0003.0001) // Tile <-> Tile communication statistics
(PID.TID 0003.0001) // ======================================================
(PID.TID 0003.0001) // o Tile number: 000004
(PID.TID 0003.0001) //         No. X exchanges =              0
(PID.TID 0003.0001) //            Max. X spins =              0
(PID.TID 0003.0001) //            Min. X spins =     1000000000
(PID.TID 0003.0001) //          Total. X spins =              0
(PID.TID 0003.0001) //            Avg. X spins =       0.00E+00
(PID.TID 0003.0001) //         No. Y exchanges =              0
(PID.TID 0003.0001) //            Max. Y spins =              0
(PID.TID 0003.0001) //            Min. Y spins =     1000000000
(PID.TID 0003.0001) //          Total. Y spins =              0
(PID.TID 0003.0001) //            Avg. Y spins =       0.00E+00
(PID.TID 0003.0001) // o Thread number: 000001
(PID.TID 0003.0001) //            No. barriers =         346620
(PID.TID 0003.0001) //      Max. barrier spins =              1
(PID.TID 0003.0001) //      Min. barrier spins =              1
(PID.TID 0003.0001) //     Total barrier spins =         346620
(PID.TID 0003.0001) //      Avg. barrier spins =       1.00E+00
PROGRAM MAIN: Execution ended Normally
