(PID.TID 0001.0001) 
(PID.TID 0001.0001) // ======================================================
(PID.TID 0001.0001) //                      MITgcm UV
(PID.TID 0001.0001) //                      =========
(PID.TID 0001.0001) // ======================================================
(PID.TID 0001.0001) // execution environment starting up...
(PID.TID 0001.0001) 
(PID.TID 0001.0001) // MITgcmUV version:  checkpoint67v
(PID.TID 0001.0001) // Build user:        eavesr
(PID.TID 0001.0001) // Build host:        atmlxint3
(PID.TID 0001.0001) // Build date:        Thu 25 Feb 14:25:42 GMT 2021
(PID.TID 0001.0001) 
(PID.TID 0001.0001) // =======================================================
(PID.TID 0001.0001) // Execution Environment parameter file "eedata"
(PID.TID 0001.0001) // =======================================================
(PID.TID 0001.0001) ># Example "eedata" file
(PID.TID 0001.0001) ># Lines beginning "#" are comments
(PID.TID 0001.0001) >#  nTx      :: No. threads per process in X
(PID.TID 0001.0001) >#  nTy      :: No. threads per process in Y
(PID.TID 0001.0001) ># debugMode :: print debug msg (sequence of S/R calls)
(PID.TID 0001.0001) > &EEPARMS
(PID.TID 0001.0001) > nTx=1,
(PID.TID 0001.0001) > nTy=1,
(PID.TID 0001.0001) > &
(PID.TID 0001.0001) ># Note: Some systems use & as the namelist terminator (as shown here).
(PID.TID 0001.0001) >#       Other systems use a / character.
(PID.TID 0001.0001) 
(PID.TID 0001.0001) // =======================================================
(PID.TID 0001.0001) // Computational Grid Specification ( see files "SIZE.h" )
(PID.TID 0001.0001) //                                  ( and "eedata"       )
(PID.TID 0001.0001) // =======================================================
(PID.TID 0001.0001)      nPx =    2 ; /* No. processes in X */
(PID.TID 0001.0001)      nPy =    2 ; /* No. processes in Y */
(PID.TID 0001.0001)      nSx =    1 ; /* No. tiles in X per process */
(PID.TID 0001.0001)      nSy =    1 ; /* No. tiles in Y per process */
(PID.TID 0001.0001)      sNx =  124 ; /* Tile size in X */
(PID.TID 0001.0001)      sNy =  124 ; /* Tile size in Y */
(PID.TID 0001.0001)      OLx =    2 ; /* Tile overlap distance in X */
(PID.TID 0001.0001)      OLy =    2 ; /* Tile overlap distance in Y */
(PID.TID 0001.0001)      nTx =    1 ; /* No. threads in X per process */
(PID.TID 0001.0001)      nTy =    1 ; /* No. threads in Y per process */
(PID.TID 0001.0001)       Nr =    1 ; /* No. levels in the vertical   */
(PID.TID 0001.0001)       Nx =  248 ; /* Total domain size in X ( = nPx*nSx*sNx ) */
(PID.TID 0001.0001)       Ny =  248 ; /* Total domain size in Y ( = nPy*nSy*sNy ) */
(PID.TID 0001.0001)   nTiles =    1 ; /* Total no. tiles per process ( = nSx*nSy ) */
(PID.TID 0001.0001)   nProcs =    4 ; /* Total no. processes ( = nPx*nPy ) */
(PID.TID 0001.0001) nThreads =    1 ; /* Total no. threads per process ( = nTx*nTy ) */
(PID.TID 0001.0001) usingMPI =    T ; /* Flag used to control whether MPI is in use */
(PID.TID 0001.0001)                   /*  note: To execute a program with MPI calls */
(PID.TID 0001.0001)                   /*  it must be launched appropriately e.g     */
(PID.TID 0001.0001)                   /*  "mpirun -np 64 ......"                    */
(PID.TID 0001.0001) useCoupler=   F ; /* Flag used to control communications with   */
(PID.TID 0001.0001)                   /*  other model components, through a coupler */
(PID.TID 0001.0001) useNest2W_parent =    F ;/* Control 2-W Nesting comm */
(PID.TID 0001.0001) useNest2W_child  =    F ;/* Control 2-W Nesting comm */
(PID.TID 0001.0001) debugMode =    F ; /* print debug msg. (sequence of S/R calls)  */
(PID.TID 0001.0001) printMapIncludesZeros=    F ; /* print zeros in Std.Output maps */
(PID.TID 0001.0001) maxLengthPrt1D=   65 /* maxLength of 1D array printed to StdOut */
(PID.TID 0001.0001) 
(PID.TID 0001.0001) ======= Starting MPI parallel Run =========
(PID.TID 0001.0001)  My Processor Name (len:  9 ) = atmlxint3
(PID.TID 0001.0001)  Located at (  0,  1) on processor grid (0:  1,0:  1)
(PID.TID 0001.0001)  Origin at  (     1,   125) on global grid (1:   248,1:   248)
(PID.TID 0001.0001)  North neighbor = processor 0000
(PID.TID 0001.0001)  South neighbor = processor 0000
(PID.TID 0001.0001)   East neighbor = processor 0003
(PID.TID 0001.0001)   West neighbor = processor 0003
(PID.TID 0001.0001) // ======================================================
(PID.TID 0001.0001) // Mapping of tiles to threads
(PID.TID 0001.0001) // ======================================================
(PID.TID 0001.0001) // -o- Thread   1, tiles (   1:   1,   1:   1)
(PID.TID 0001.0001) 
(PID.TID 0001.0001) // ======================================================
(PID.TID 0001.0001) // Tile <-> Tile connectvity table
(PID.TID 0001.0001) // ======================================================
(PID.TID 0001.0001) // Tile number: 000003 (process no. = 000001)
(PID.TID 0001.0001) //        WEST: Tile = 000004, Process = 000003, Comm = messages
(PID.TID 0001.0001) //                bi = 000001, bj = 000001
(PID.TID 0001.0001) //        EAST: Tile = 000004, Process = 000003, Comm = messages
(PID.TID 0001.0001) //                bi = 000001, bj = 000001
(PID.TID 0001.0001) //       SOUTH: Tile = 000001, Process = 000000, Comm = messages
(PID.TID 0001.0001) //                bi = 000001, bj = 000001
(PID.TID 0001.0001) //       NORTH: Tile = 000001, Process = 000000, Comm = messages
(PID.TID 0001.0001) //                bi = 000001, bj = 000001
(PID.TID 0001.0001) 
(PID.TID 0001.0001)  INI_PARMS: opening model parameter file "data"
(PID.TID 0001.0001)  OPEN_COPY_DATA_FILE: opening file data
(PID.TID 0001.0001) // =======================================================
(PID.TID 0001.0001) // Parameter file "data"
(PID.TID 0001.0001) // =======================================================
(PID.TID 0001.0001) ># Model parameters
(PID.TID 0001.0001) ># Continuous equation parameters
(PID.TID 0001.0001) > &PARM01
(PID.TID 0001.0001) > viscAh=4.E2,
(PID.TID 0001.0001) > f0=0.7E-4,
(PID.TID 0001.0001) > beta=2.E-11,
(PID.TID 0001.0001) > rhoConst=1027.,
(PID.TID 0001.0001) > gBaro=9.81,
(PID.TID 0001.0001) > rigidLid=.FALSE.,
(PID.TID 0001.0001) > implicitFreeSurface=.TRUE.,
(PID.TID 0001.0001) ># momAdvection=.FALSE.,
(PID.TID 0001.0001) > tempStepping=.FALSE.,
(PID.TID 0001.0001) > saltStepping=.FALSE.,
(PID.TID 0001.0001) > useSingleCpuIO=.TRUE.,
(PID.TID 0001.0001) > hFacMin=0.1,
(PID.TID 0001.0001) > &
(PID.TID 0001.0001) >
(PID.TID 0001.0001) ># Elliptic solver parameters
(PID.TID 0001.0001) > &PARM02
(PID.TID 0001.0001) > cg2dTargetResidual=1.E-7,
(PID.TID 0001.0001) > cg2dMaxIters=1000,
(PID.TID 0001.0001) > &
(PID.TID 0001.0001) >
(PID.TID 0001.0001) ># Time stepping parameters
(PID.TID 0001.0001) > &PARM03
(PID.TID 0001.0001) > nIter0=0,
(PID.TID 0001.0001) > nTimeSteps=100,
(PID.TID 0001.0001) > deltaT=5400.0,
(PID.TID 0001.0001) > pChkptFreq=31104000.0,
(PID.TID 0001.0001) > chkptFreq=25920000.0,
(PID.TID 0001.0001) > dumpFreq=864000.0,
(PID.TID 0001.0001) > monitorFreq=86400.,
(PID.TID 0001.0001) > monitorSelect=2,
(PID.TID 0001.0001) >#-for longer run (3.0 yr):
(PID.TID 0001.0001) ># nTimeSteps=77760,
(PID.TID 0001.0001) ># monitorFreq=864000.,
(PID.TID 0001.0001) > &
(PID.TID 0001.0001) >
(PID.TID 0001.0001) ># Gridding parameters
(PID.TID 0001.0001) > &PARM04
(PID.TID 0001.0001) > usingCartesianGrid=.TRUE.,
(PID.TID 0001.0001) > delX=248*5.E3,
(PID.TID 0001.0001) > delY=248*5.E3,
(PID.TID 0001.0001) > xgOrigin=-5.E3,
(PID.TID 0001.0001) > ygOrigin=-5.E3,
(PID.TID 0001.0001) > delR=5000.,
(PID.TID 0001.0001) > &
(PID.TID 0001.0001) >
(PID.TID 0001.0001) ># Input datasets
(PID.TID 0001.0001) > &PARM05
(PID.TID 0001.0001) > bathyFile='bathy.bin'
(PID.TID 0001.0001) > zonalWindFile='wind.bin',
(PID.TID 0001.0001) >#zonalWindFile='windx_siny.bin',
(PID.TID 0001.0001) > meridWindFile=,
(PID.TID 0001.0001) > &
(PID.TID 0001.0001) 
(PID.TID 0001.0001)  INI_PARMS ; starts to read PARM01
(PID.TID 0001.0001)  INI_PARMS ; read PARM01 : OK
(PID.TID 0001.0001)  INI_PARMS ; starts to read PARM02
(PID.TID 0001.0001)  INI_PARMS ; read PARM02 : OK
(PID.TID 0001.0001)  INI_PARMS ; starts to read PARM03
(PID.TID 0001.0001)  INI_PARMS ; read PARM03 : OK
(PID.TID 0001.0001)  INI_PARMS ; starts to read PARM04
(PID.TID 0001.0001)  INI_PARMS ; read PARM04 : OK
(PID.TID 0001.0001)  INI_PARMS ; starts to read PARM05
(PID.TID 0001.0001)  INI_PARMS ; read PARM05 : OK
(PID.TID 0001.0001)  INI_PARMS: finished reading file "data"
(PID.TID 0001.0001)  PACKAGES_BOOT: opening data.pkg
(PID.TID 0001.0001)  OPEN_COPY_DATA_FILE: opening file data.pkg
(PID.TID 0001.0001) // =======================================================
(PID.TID 0001.0001) // Parameter file "data.pkg"
(PID.TID 0001.0001) // =======================================================
(PID.TID 0001.0001) ># Packages
(PID.TID 0001.0001) > &PACKAGES
(PID.TID 0001.0001) > &
(PID.TID 0001.0001) 
(PID.TID 0001.0001)  PACKAGES_BOOT: finished reading data.pkg
(PID.TID 0001.0001)  PACKAGES_BOOT: On/Off package Summary
 --------  pkgs with a standard "usePKG" On/Off switch in "data.pkg":  --------
 -------- pkgs without standard "usePKG" On/Off switch in "data.pkg":  --------
 pkg/generic_advdiff      compiled but not used ( useGAD                   = F )
 pkg/mom_common           compiled   and   used ( momStepping              = T )
 pkg/mom_vecinv           compiled but not used ( +vectorInvariantMomentum = F )
 pkg/mom_fluxform         compiled   and   used ( & not vectorInvariantMom = T )
 pkg/monitor              compiled   and   used ( monitorFreq > 0.         = T )
 pkg/debug                compiled but not used ( debugMode                = F )
 pkg/rw                   compiled   and   used
 pkg/mdsio                compiled   and   used
(PID.TID 0001.0001)  PACKAGES_BOOT: End of package Summary
(PID.TID 0001.0001) 
(PID.TID 0001.0001) SET_PARMS: done
(PID.TID 0001.0001) Enter INI_VERTICAL_GRID: setInterFDr=    T ; setCenterDr=    F
(PID.TID 0001.0001) // =======================================================
(PID.TID 0001.0001) // Field Model R_low (ini_masks_etc)
(PID.TID 0001.0001) // CMIN =         -4.999819335937500E+03
(PID.TID 0001.0001) // CMAX =         -4.500020019531250E+03
(PID.TID 0001.0001) // CINT =          1.851108579282407E+01
(PID.TID 0001.0001) // SYMBOLS (CMIN->CMAX): -abcdefghijklmnopqrstuvwxyz+
(PID.TID 0001.0001) //                  0.0: .
(PID.TID 0001.0001) // RANGE I (Lo:Hi:Step):(    -1:   126:     1)
(PID.TID 0001.0001) // RANGE J (Lo:Hi:Step):(   250:   123:    -1)
(PID.TID 0001.0001) // RANGE K (Lo:Hi:Step):(   1:   1:   1)
(PID.TID 0001.0001) // =======================================================
(PID.TID 0001.0001) K =   1
(PID.TID 0001.0001) //                I=8       I=18      I=28      I=38      I=48      I=58      I=68      I=78      I=88      I=98      I=108     I=118
(PID.TID 0001.0001) // |--J--|101234567|901234567|901234567|901234567|901234567|901234567|901234567|901234567|901234567|901234567|901234567|901234567|90123456
(PID.TID 0001.0001) //    250 -..------------------------------------------------------------------------------------------------------------------aaaaaaaaaaa
(PID.TID 0001.0001) //    249 ................................................................................................................................
(PID.TID 0001.0001) //    248 ................................................................................................................................
(PID.TID 0001.0001) //    247 -..------------------------------------------------------------------------------------------------------------------aaaaaaaaaaa
(PID.TID 0001.0001) //    246 -..-------------------------------------------------aaaaaaaaaaaaaaaaaaaaaaaaaaaaaaaaaaaaaaaaaaaaaaaaaaaaaaaaaaaaaaaaaaaaaaaaaaaa
(PID.TID 0001.0001) //    245 -..----------------------------------aaaaaaaaaaaaaaaaaaaaaaaaaaaaaaaaaaaaaaaaaaaaaaaaaaaaaaaaaaaaaaaaaaaaaaaaaaaaaaaaaaaaaaaaaaa
(PID.TID 0001.0001) //    244 -..--------------------------aaaaaaaaaaaaaaaaaaaaaaaaaaaaaaaaaaaaaaaaaaaaaaaaaaaaaaaaaaaaaaaaaaaaaaaaaaaaaaaaaabbbbbbbbbbbbbbbbb
(PID.TID 0001.0001) //    243 -..---------------------aaaaaaaaaaaaaaaaaaaaaaaaaaaaaaaaaaaaaaaaaaaaaaaaaaaabbbbbbbbbbbbbbbbbbbbbbbbbbbbbbbbbbbbbbbbbbbbbbbbbbbb
(PID.TID 0001.0001) //    242 -..-----------------aaaaaaaaaaaaaaaaaaaaaaaaaaaaaaaaaaaaaaaaabbbbbbbbbbbbbbbbbbbbbbbbbbbbbbbbbbbbbbbbbbbbbbbbbbbbbbbbbbbbbbbbbbb
(PID.TID 0001.0001) //    241 -..---------------aaaaaaaaaaaaaaaaaaaaaaaaaaaaaaaaaabbbbbbbbbbbbbbbbbbbbbbbbbbbbbbbbbbbbbbbbbbbbbbbbbbbbbbbbbbcccccccccccccccccc
(PID.TID 0001.0001) //    240 -..-------------aaaaaaaaaaaaaaaaaaaaaaaaaaaaabbbbbbbbbbbbbbbbbbbbbbbbbbbbbbbbbbbbbbbcccccccccccccccccccccccccccccccccccccccccccc
(PID.TID 0001.0001) //    239 -..-----------aaaaaaaaaaaaaaaaaaaaaaaaaabbbbbbbbbbbbbbbbbbbbbbbbbbbbbbbbcccccccccccccccccccccccccccccccccccccccccccccccccccccccc
(PID.TID 0001.0001) //    238 -..----------aaaaaaaaaaaaaaaaaaaaaaabbbbbbbbbbbbbbbbbbbbbbbbbbbcccccccccccccccccccccccccccccccccccccccccccccccdddddddddddddddddd
(PID.TID 0001.0001) //    237 -..---------aaaaaaaaaaaaaaaaaaaaabbbbbbbbbbbbbbbbbbbbbbbbcccccccccccccccccccccccccccccccccdddddddddddddddddddddddddddddddddddddd
(PID.TID 0001.0001) //    236 -..--------aaaaaaaaaaaaaaaaaaaabbbbbbbbbbbbbbbbbbbbbccccccccccccccccccccccccccdddddddddddddddddddddddddddddddddddddddddddddddddd
(PID.TID 0001.0001) //    235 -..--------aaaaaaaaaaaaaaaaabbbbbbbbbbbbbbbbbbbbcccccccccccccccccccccccddddddddddddddddddddddddddddddddddddddddeeeeeeeeeeeeeeeee
(PID.TID 0001.0001) //    234 -..-------aaaaaaaaaaaaaaaaabbbbbbbbbbbbbbbbbccccccccccccccccccccdddddddddddddddddddddddddddddeeeeeeeeeeeeeeeeeeeeeeeeeeeeeeeeeee
(PID.TID 0001.0001) //    233 -..-------aaaaaaaaaaaaaaabbbbbbbbbbbbbbbbcccccccccccccccccccdddddddddddddddddddddddeeeeeeeeeeeeeeeeeeeeeeeeeeeeeeeeeeeeeeeeeeeee
(PID.TID 0001.0001) //    232 -..------aaaaaaaaaaaaaaabbbbbbbbbbbbbbbccccccccccccccccdddddddddddddddddddddeeeeeeeeeeeeeeeeeeeeeeeeeeeeeeeeeeefffffffffffffffff
(PID.TID 0001.0001) //    231 -..------aaaaaaaaaaaaabbbbbbbbbbbbbbccccccccccccccccddddddddddddddddddeeeeeeeeeeeeeeeeeeeeeeeeeeffffffffffffffffffffffffffffffff
(PID.TID 0001.0001) //    230 -..-----aaaaaaaaaaaaabbbbbbbbbbbbbcccccccccccccccddddddddddddddddeeeeeeeeeeeeeeeeeeeeeefffffffffffffffffffffffffffffffffffffffff
(PID.TID 0001.0001) //    229 -..-----aaaaaaaaaaaabbbbbbbbbbbbbcccccccccccccdddddddddddddddeeeeeeeeeeeeeeeeeeefffffffffffffffffffffffffffffffffggggggggggggggg
(PID.TID 0001.0001) //    228 -..-----aaaaaaaaaaabbbbbbbbbbbbcccccccccccccddddddddddddddeeeeeeeeeeeeeeeeffffffffffffffffffffffffgggggggggggggggggggggggggggggg
(PID.TID 0001.0001) //    227 -..-----aaaaaaaaaaabbbbbbbbbbbccccccccccccdddddddddddddeeeeeeeeeeeeeeeffffffffffffffffffffgggggggggggggggggggggggggggggggggggggg
(PID.TID 0001.0001) //    226 -..----aaaaaaaaaaabbbbbbbbbbbcccccccccccddddddddddddeeeeeeeeeeeeeefffffffffffffffffggggggggggggggggggggggggggggggghhhhhhhhhhhhhh
(PID.TID 0001.0001) //    225 -..----aaaaaaaaaabbbbbbbbbbcccccccccccddddddddddddeeeeeeeeeeeeefffffffffffffffgggggggggggggggggggggghhhhhhhhhhhhhhhhhhhhhhhhhhhh
(PID.TID 0001.0001) //    224 -..----aaaaaaaaaabbbbbbbbbcccccccccccdddddddddddeeeeeeeeeeeeffffffffffffffgggggggggggggggggghhhhhhhhhhhhhhhhhhhhhhhhhhhhhhhhhhhh
(PID.TID 0001.0001) //    223 -..----aaaaaaaaabbbbbbbbbccccccccccdddddddddddeeeeeeeeeeefffffffffffffgggggggggggggggghhhhhhhhhhhhhhhhhhhhhhhhhhhhhhiiiiiiiiiiii
(PID.TID 0001.0001) //    222 -..----aaaaaaaabbbbbbbbbbcccccccccddddddddddeeeeeeeeeeeffffffffffffgggggggggggggghhhhhhhhhhhhhhhhhhhhhhiiiiiiiiiiiiiiiiiiiiiiiii
(PID.TID 0001.0001) //    221 -..---aaaaaaaaabbbbbbbbbcccccccccdddddddddeeeeeeeeeeefffffffffffggggggggggggghhhhhhhhhhhhhhhhhhiiiiiiiiiiiiiiiiiiiiiiiiiiiiiiiii
(PID.TID 0001.0001) //    220 -..---aaaaaaaaabbbbbbbbcccccccccdddddddddeeeeeeeeeeffffffffffggggggggggggghhhhhhhhhhhhhhhiiiiiiiiiiiiiiiiiiiiiiiiiiiiiiijjjjjjjj
(PID.TID 0001.0001) //    219 -..---aaaaaaaabbbbbbbbcccccccccddddddddeeeeeeeeeeffffffffffggggggggggghhhhhhhhhhhhhhiiiiiiiiiiiiiiiiiiiiijjjjjjjjjjjjjjjjjjjjjjj
(PID.TID 0001.0001) //    218 -..---aaaaaaaabbbbbbbbccccccccddddddddeeeeeeeeeffffffffffggggggggggghhhhhhhhhhhhiiiiiiiiiiiiiiiiijjjjjjjjjjjjjjjjjjjjjjjjjjjjjjj
(PID.TID 0001.0001) //    217 -..---aaaaaaabbbbbbbbccccccccddddddddeeeeeeeeefffffffffgggggggggghhhhhhhhhhhhiiiiiiiiiiiiiiijjjjjjjjjjjjjjjjjjjjjjjjjjjjjjjjjjjj
(PID.TID 0001.0001) //    216 -..---aaaaaaabbbbbbbccccccccddddddddeeeeeeeefffffffffgggggggggghhhhhhhhhhhiiiiiiiiiiiiijjjjjjjjjjjjjjjjjjjjkkkkkkkkkkkkkkkkkkkkk
(PID.TID 0001.0001) //    215 -..---aaaaaaabbbbbbbcccccccddddddddeeeeeeeeffffffffgggggggggghhhhhhhhhhiiiiiiiiiiiijjjjjjjjjjjjjjjjjkkkkkkkkkkkkkkkkkkkkkkkkkkkk
(PID.TID 0001.0001) //    214 -..---aaaaaabbbbbbbccccccccdddddddeeeeeeeeffffffffggggggggghhhhhhhhhiiiiiiiiiiiijjjjjjjjjjjjjjkkkkkkkkkkkkkkkkkkkkkkkkkkkkkkkkkk
(PID.TID 0001.0001) //    213 -..--aaaaaaabbbbbbbcccccccdddddddeeeeeeeefffffffggggggggghhhhhhhhhiiiiiiiiiiijjjjjjjjjjjjjkkkkkkkkkkkkkkkkkkkkllllllllllllllllll
(PID.TID 0001.0001) //    212 -..--aaaaaaabbbbbbbccccccdddddddeeeeeeeffffffffgggggggghhhhhhhhhiiiiiiiiiijjjjjjjjjjjjkkkkkkkkkkkkkkkkllllllllllllllllllllllllll
(PID.TID 0001.0001) //    211 -..--aaaaaaabbbbbbcccccccddddddeeeeeeeffffffffgggggggghhhhhhhhiiiiiiiiijjjjjjjjjjjkkkkkkkkkkkkkkklllllllllllllllllllllllllllllll
(PID.TID 0001.0001) //    210 -..--aaaaaabbbbbbbccccccdddddddeeeeeeefffffffggggggghhhhhhhhiiiiiiiiijjjjjjjjjjkkkkkkkkkkkkkllllllllllllllllllllllmmmmmmmmmmmmmm
(PID.TID 0001.0001) //    209 -..--aaaaaabbbbbbcccccccddddddeeeeeeefffffffggggggghhhhhhhhiiiiiiiijjjjjjjjjjkkkkkkkkkkklllllllllllllllllmmmmmmmmmmmmmmmmmmmmmmm
(PID.TID 0001.0001) //    208 -..--aaaaaabbbbbbccccccddddddeeeeeeefffffffggggggghhhhhhhiiiiiiiijjjjjjjjjkkkkkkkkkkkllllllllllllllmmmmmmmmmmmmmmmmmmmmmmmmmmmmm
(PID.TID 0001.0001) //    207 -..--aaaaaabbbbbbccccccddddddeeeeeefffffffgggggghhhhhhhhiiiiiiijjjjjjjjjkkkkkkkkkklllllllllllllmmmmmmmmmmmmmmmmmmmmmmmmmnnnnnnnn
(PID.TID 0001.0001) //    206 -..--aaaaaabbbbbccccccddddddeeeeeefffffffgggggghhhhhhhiiiiiiiijjjjjjjjkkkkkkkkkllllllllllllmmmmmmmmmmmmmmmmmnnnnnnnnnnnnnnnnnnnn
(PID.TID 0001.0001) //    205 -..--aaaaabbbbbbccccccddddddeeeeeeffffffgggggghhhhhhhiiiiiiijjjjjjjjkkkkkkkkklllllllllllmmmmmmmmmmmmmmnnnnnnnnnnnnnnnnnnnnnnnnnn
(PID.TID 0001.0001) //    204 -..--aaaaabbbbbbcccccddddddeeeeeeffffffgggggghhhhhhhiiiiiiijjjjjjjkkkkkkkkkllllllllllmmmmmmmmmmmmmnnnnnnnnnnnnnnnnnnnnnnnnnnnnnn
(PID.TID 0001.0001) //    203 -..--aaaaabbbbbbcccccddddddeeeeeffffffgggggghhhhhhhiiiiiijjjjjjjjkkkkkkkklllllllllmmmmmmmmmmmmnnnnnnnnnnnnnnnnnnnooooooooooooooo
(PID.TID 0001.0001) //    202 -..--aaaaabbbbbccccccdddddeeeeeefffffgggggghhhhhhhiiiiiijjjjjjjkkkkkkkklllllllllmmmmmmmmmmnnnnnnnnnnnnnnnnoooooooooooooooooooooo
(PID.TID 0001.0001) //    201 -..--aaaaabbbbbcccccddddddeeeeeffffffgggggghhhhhhiiiiiijjjjjjjkkkkkkklllllllllmmmmmmmmmmnnnnnnnnnnnnnooooooooooooooooooooooooooo
(PID.TID 0001.0001) //    200 -..--aaaaabbbbbcccccdddddeeeeeefffffgggggghhhhhhiiiiiijjjjjjkkkkkkkkllllllllmmmmmmmmmnnnnnnnnnnnnooooooooooooooooooooooppppppppp
(PID.TID 0001.0001) //    199 -..--aaaaabbbbbcccccdddddeeeeefffffgggggghhhhhhiiiiiijjjjjjkkkkkkkllllllllmmmmmmmmmnnnnnnnnnnooooooooooooooooopppppppppppppppppp
(PID.TID 0001.0001) //    198 -..-aaaaabbbbbcccccdddddeeeeeefffffggggghhhhhhiiiiiijjjjjjkkkkkkklllllllmmmmmmmmnnnnnnnnnnoooooooooooooopppppppppppppppppppppppp
(PID.TID 0001.0001) //    197 -..-aaaaabbbbbcccccdddddeeeeefffffgggggghhhhhiiiiiijjjjjjkkkkkkllllllllmmmmmmmnnnnnnnnnnoooooooooooopppppppppppppppppppppppppppp
(PID.TID 0001.0001) //    196 -..-aaaaabbbbbcccccdddddeeeeefffffggggghhhhhiiiiiijjjjjjkkkkkklllllllmmmmmmmmnnnnnnnnooooooooooopppppppppppppppppppqqqqqqqqqqqqq
(PID.TID 0001.0001) //    195 -..-aaaaabbbbbccccdddddeeeeefffffggggghhhhhhiiiiijjjjjjkkkkkklllllllmmmmmmmnnnnnnnnoooooooooopppppppppppppppqqqqqqqqqqqqqqqqqqqq
(PID.TID 0001.0001) //    194 -..-aaaaabbbbbccccdddddeeeeefffffggggghhhhhiiiiijjjjjjkkkkkkllllllmmmmmmmnnnnnnnnoooooooooopppppppppppppqqqqqqqqqqqqqqqqqqqqqqqq
(PID.TID 0001.0001) //    193 -..-aaaaabbbbcccccdddddeeeefffffggggghhhhhiiiiijjjjjjkkkkkkllllllmmmmmmmnnnnnnnoooooooooppppppppppppqqqqqqqqqqqqqqqqqqqqqqqqqqqq
(PID.TID 0001.0001) //    192 -..-aaaaabbbbcccccddddeeeeefffffggggghhhhhiiiiijjjjjkkkkkkllllllmmmmmmnnnnnnnnoooooooopppppppppppqqqqqqqqqqqqqqqqqrrrrrrrrrrrrrr
(PID.TID 0001.0001) //    191 -..-aaaaabbbbcccccddddeeeeeffffggggghhhhhiiiiijjjjjkkkkkkllllllmmmmmmnnnnnnnooooooooppppppppppqqqqqqqqqqqqqqrrrrrrrrrrrrrrrrrrrr
(PID.TID 0001.0001) //    190 -..-aaaaabbbbccccdddddeeeefffffggggghhhhiiiiijjjjjkkkkkkllllllmmmmmmnnnnnnnooooooopppppppppqqqqqqqqqqqqqrrrrrrrrrrrrrrrrrrrrrrrr
(PID.TID 0001.0001) //    189 -..-aaaabbbbbccccddddeeeeeffffggggghhhhhiiiiijjjjjkkkkkllllllmmmmmmnnnnnnooooooooppppppppqqqqqqqqqqqrrrrrrrrrrrrrrrrrrrrrrrrrrrr
(PID.TID 0001.0001) //    188 -..-aaaabbbbbccccddddeeeeeffffggggghhhhiiiiijjjjjkkkkkllllllmmmmmmnnnnnnoooooooppppppppqqqqqqqqqqrrrrrrrrrrrrrrrrrssssssssssssss
(PID.TID 0001.0001) //    187 -..-aaaabbbbcccccddddeeeefffffgggghhhhhiiiijjjjjkkkkkllllllmmmmmmnnnnnnooooooopppppppqqqqqqqqqqrrrrrrrrrrrrrssssssssssssssssssss
(PID.TID 0001.0001) //    186 -..-aaaabbbbccccdddddeeeeffffggggghhhhiiiiijjjjjkkkkklllllmmmmmmnnnnnnooooooppppppppqqqqqqqqrrrrrrrrrrrrssssssssssssssssssssssss
(PID.TID 0001.0001) //    185 -..-aaaabbbbccccddddeeeeeffffgggghhhhhiiiijjjjjkkkkklllllmmmmmmnnnnnooooooopppppppqqqqqqqqrrrrrrrrrrrsssssssssssssssssssssssssss
(PID.TID 0001.0001) //    184 -..-aaaabbbbccccddddeeeefffffgggghhhhiiiiijjjjkkkkklllllmmmmmmnnnnnoooooooppppppqqqqqqqqrrrrrrrrrrsssssssssssssssssttttttttttttt
(PID.TID 0001.0001) //    183 -..-aaaabbbbccccddddeeeeffffggggghhhhiiiijjjjjkkkkklllllmmmmmnnnnnoooooopppppppqqqqqqqqrrrrrrrrrsssssssssssssstttttttttttttttttt
(PID.TID 0001.0001) //    182 -..-aaaabbbbccccddddeeeeffffgggghhhhiiiiijjjjkkkkklllllmmmmmnnnnnoooooopppppppqqqqqqqrrrrrrrrrsssssssssssstttttttttttttttttttttt
(PID.TID 0001.0001) //    181 -..-aaaabbbbccccddddeeeeffffgggghhhhiiiijjjjjkkkklllllmmmmmnnnnnnooooopppppppqqqqqqqrrrrrrrrsssssssssssttttttttttttttttttttttttt
(PID.TID 0001.0001) //    180 -..-aaaabbbbccccdddeeeeffffgggghhhhhiiiijjjjkkkkklllllmmmmnnnnnnoooooppppppqqqqqqqrrrrrrrrssssssssssttttttttttttttttttuuuuuuuuuu
(PID.TID 0001.0001) //    179 -..-aaaabbbbcccddddeeeeffffgggghhhhiiiijjjjjkkkklllllmmmmmnnnnnoooooppppppqqqqqqqrrrrrrrssssssssssttttttttttttttuuuuuuuuuuuuuuuu
(PID.TID 0001.0001) //    178 -..-aaaabbbccccddddeeeeffffgggghhhhiiiijjjjkkkkkllllmmmmmnnnnnoooooppppppqqqqqqqrrrrrrrsssssssssttttttttttttuuuuuuuuuuuuuuuuuuuu
(PID.TID 0001.0001) //    177 -..-aaaabbbccccddddeeeeffffgggghhhhiiiijjjjkkkklllllmmmmnnnnnoooooopppppqqqqqqrrrrrrrssssssssstttttttttttuuuuuuuuuuuuuuuuuuuuuuu
(PID.TID 0001.0001) //    176 -..-aaaabbbccccddddeeeffffgggghhhhiiiijjjjkkkkkllllmmmmmnnnnnooooopppppqqqqqqrrrrrrrssssssssttttttttttuuuuuuuuuuuuuuuuuuuuuuuuuu
(PID.TID 0001.0001) //    175 -..-aaaabbbccccddddeeeffffgggghhhhiiiijjjjkkkklllllmmmmnnnnnooooopppppqqqqqqrrrrrrrsssssssttttttttttuuuuuuuuuuuuuuuuvvvvvvvvvvvv
(PID.TID 0001.0001) //    174 -..-aaabbbbccccdddeeeeffffgggghhhhiiiijjjjkkkkllllmmmmmnnnnoooooppppppqqqqqrrrrrrrssssssstttttttttuuuuuuuuuuuuuuvvvvvvvvvvvvvvvv
(PID.TID 0001.0001) //    173 -..-aaabbbbccccdddeeeeffffggghhhhiiiijjjjkkkklllllmmmmnnnnnooooopppppqqqqqrrrrrrrsssssssttttttttuuuuuuuuuuuuvvvvvvvvvvvvvvvvvvvv
(PID.TID 0001.0001) //    172 -..-aaabbbbcccddddeeeefffgggghhhhiiiijjjjkkkkllllmmmmnnnnnooooopppppqqqqqrrrrrrsssssssttttttttuuuuuuuuuuuvvvvvvvvvvvvvvvvvvvvvvv
(PID.TID 0001.0001) //    171 -..-aaabbbbcccddddeeeefffgggghhhhiiiijjjkkkklllllmmmmnnnnooooopppppqqqqqqrrrrrsssssssttttttttuuuuuuuuuuvvvvvvvvvvvvvvvvvvvvvvvvv
(PID.TID 0001.0001) //    170 -..-aaabbbbcccddddeeeffffgggghhhiiiijjjjkkkkllllmmmmnnnnnoooooppppqqqqqqrrrrrrsssssstttttttuuuuuuuuuuvvvvvvvvvvvvvvvvwwwwwwwwwww
(PID.TID 0001.0001) //    169 -..-aaabbbbcccddddeeeffffggghhhhiiiijjjjkkkkllllmmmmnnnnooooopppppqqqqqrrrrrrsssssstttttttuuuuuuuuuvvvvvvvvvvvvvvwwwwwwwwwwwwwww
(PID.TID 0001.0001) //    168 -..-aaabbbbcccddddeeeffffggghhhhiiiijjjkkkkllllmmmmmnnnnoooopppppqqqqqrrrrrrsssssstttttttuuuuuuuuvvvvvvvvvvvvwwwwwwwwwwwwwwwwwww
(PID.TID 0001.0001) //    167 -..-aaabbbbcccdddeeeefffgggghhhhiiijjjjkkkkllllmmmmnnnnooooopppppqqqqqrrrrrsssssstttttttuuuuuuuuvvvvvvvvvvvwwwwwwwwwwwwwwwwwwwww
(PID.TID 0001.0001) //    166 -..-aaabbbccccdddeeeefffgggghhhiiiijjjjkkkkllllmmmmnnnnoooopppppqqqqqrrrrrsssssstttttttuuuuuuuvvvvvvvvvvvwwwwwwwwwwwwwwwwwwwwwww
(PID.TID 0001.0001) //    165 -..-aaabbbccccdddeeeefffgggghhhiiiijjjjkkkllllmmmmnnnnoooooppppqqqqqrrrrrsssssstttttttuuuuuuuvvvvvvvvvvwwwwwwwwwwwwwwwwwwwxxxxxx
(PID.TID 0001.0001) //    164 -..-aaabbbccccdddeeeefffggghhhhiiiijjjkkkkllllmmmmnnnnoooopppppqqqqqrrrrrssssstttttttuuuuuuuvvvvvvvvvwwwwwwwwwwwwwwwxxxxxxxxxxxx
(PID.TID 0001.0001) //    163 -..-aaabbbccccdddeeeffffggghhhhiiijjjjkkkkllllmmmmnnnnooooppppqqqqqrrrrrssssssttttttuuuuuuuvvvvvvvvwwwwwwwwwwwwwxxxxxxxxxxxxxxxx
(PID.TID 0001.0001) //    162 -..-aaabbbccccdddeeeffffggghhhhiiijjjjkkkllllmmmmnnnnoooopppppqqqqrrrrrssssssttttttuuuuuuuvvvvvvvvwwwwwwwwwwwwxxxxxxxxxxxxxxxxxx
(PID.TID 0001.0001) //    161 -..-aaabbbccccdddeeeffffggghhhiiiijjjjkkkllllmmmmnnnnooooppppqqqqqrrrrrsssssttttttuuuuuuuvvvvvvvvwwwwwwwwwwxxxxxxxxxxxxxxxxxxxxx
(PID.TID 0001.0001) //    160 -..-aaabbbcccddddeeefffgggghhhiiiijjjkkkkllllmmmnnnnoooooppppqqqqrrrrrsssssttttttuuuuuuuvvvvvvvwwwwwwwwwwwxxxxxxxxxxxxxxxxxxxxxx
(PID.TID 0001.0001) //    159 -..-aaabbbcccddddeeefffgggghhhiiiijjjkkkklllmmmmnnnnooooppppqqqqqrrrrrssssstttttuuuuuuuvvvvvvvwwwwwwwwwwxxxxxxxxxxxxxxxxxxxxxxxx
(PID.TID 0001.0001) //    158 -..-aaabbbcccddddeeefffggghhhhiiijjjjkkkllllmmmmnnnnooooppppqqqqrrrrrsssssttttttuuuuuuvvvvvvvwwwwwwwwwxxxxxxxxxxxxxxxxxyyyyyyyyy
(PID.TID 0001.0001) //    157 -..-aaabbbcccdddeeeefffggghhhhiiijjjjkkkllllmmmmnnnoooopppppqqqqrrrrrssssstttttuuuuuuvvvvvvvwwwwwwwwwxxxxxxxxxxxxxxyyyyyyyyyyyyy
(PID.TID 0001.0001) //    156 -..-aaabbbcccdddeeeefffggghhhhiiijjjkkkkllllmmmnnnnooooppppqqqqqrrrrssssstttttuuuuuuvvvvvvvwwwwwwwwwxxxxxxxxxxxxyyyyyyyyyyyyyyyy
(PID.TID 0001.0001) //    155 -..-aaabbbcccdddeeeefffggghhhiiiijjjkkkklllmmmmnnnnooooppppqqqqrrrrrssssstttttuuuuuuvvvvvvwwwwwwwwxxxxxxxxxxxxyyyyyyyyyyyyyyyyyy
(PID.TID 0001.0001) //    154 -..-aaabbbcccdddeeeffffggghhhiiiijjjkkkklllmmmmnnnnooopppppqqqqrrrrssssstttttuuuuuuvvvvvvvwwwwwwwxxxxxxxxxxxyyyyyyyyyyyyyyyyyyyy
(PID.TID 0001.0001) //    153 -..-aaabbbcccdddeeeffffggghhhiiijjjjkkkllllmmmmnnnooooppppqqqqrrrrrssssstttttuuuuuvvvvvvvwwwwwwwxxxxxxxxxxxyyyyyyyyyyyyyyyyyyyyy
(PID.TID 0001.0001) //    152 -..-aaabbbcccdddeeefffgggghhhiiijjjjkkkllllmmmnnnnooooppppqqqqrrrrssssstttttuuuuuuvvvvvvwwwwwwwxxxxxxxxxxyyyyyyyyyyyyyyyyyyyyyyy
(PID.TID 0001.0001) //    151 -..-aaabbbcccdddeeefffgggghhhiiijjjjkkklllmmmmnnnnooooppppqqqqrrrrssssstttttuuuuuvvvvvvwwwwwwwwxxxxxxxxxyyyyyyyyyyyyyyyyyyyyyyyy
(PID.TID 0001.0001) //    150 -..-aaabbbcccdddeeefffggghhhhiiijjjkkkklllmmmmnnnnoooppppqqqqrrrrrsssstttttuuuuuuvvvvvvwwwwwwwxxxxxxxxxyyyyyyyyyyyyyyyyzzzzzzzzz
(PID.TID 0001.0001) //    149 -..-aaabbbcccdddeeefffggghhhhiiijjjkkkklllmmmmnnnooooppppqqqqrrrrssssstttttuuuuuvvvvvvwwwwwwwxxxxxxxxxyyyyyyyyyyyyyyzzzzzzzzzzzz
(PID.TID 0001.0001) //    148 -..-aaabbbcccdddeeefffggghhhhiiijjjkkkllllmmmnnnnooooppppqqqqrrrrsssssttttuuuuuuvvvvvvwwwwwwxxxxxxxxxyyyyyyyyyyyyyzzzzzzzzzzzzzz
(PID.TID 0001.0001) //    147 -..-aaabbbcccdddeeefffggghhhiiiijjjkkkllllmmmnnnnooooppppqqqqrrrrsssstttttuuuuuvvvvvvwwwwwwwxxxxxxxxyyyyyyyyyyyyzzzzzzzzzzzzzzzz
(PID.TID 0001.0001) //    146 -..-aaabbbcccdddeeefffggghhhiiiijjjkkkllllmmmnnnnoooppppqqqqrrrrssssstttttuuuuuvvvvvvwwwwwwxxxxxxxxyyyyyyyyyyyzzzzzzzzzzzzzzzzzz
(PID.TID 0001.0001) //    145 -..-aaabbbcccdddeeefffggghhhiiijjjjkkklllmmmmnnnnoooppppqqqqrrrrsssssttttuuuuuvvvvvvwwwwwwwxxxxxxxyyyyyyyyyyyzzzzzzzzzzzzzzzzzzz
(PID.TID 0001.0001) //    144 -..-aaabbbcccdddeeefffggghhhiiijjjjkkklllmmmmnnnooooppppqqqqrrrrsssstttttuuuuuvvvvvvwwwwwwxxxxxxxxyyyyyyyyyyzzzzzzzzzzzzzzzzzzzz
(PID.TID 0001.0001) //    143 -..-aaabbbcccdddeeefffggghhhiiijjjkkkklllmmmmnnnooooppppqqqqrrrrsssstttttuuuuuvvvvvwwwwwwxxxxxxxxyyyyyyyyyyzzzzzzzzzzzzzzzzzzzzz
(PID.TID 0001.0001) //    142 -..-aaabbbcccdddeeefffggghhhiiijjjkkkklllmmmnnnnoooopppqqqqrrrrsssssttttuuuuuvvvvvvwwwwwwxxxxxxxyyyyyyyyyyzzzzzzzzzzzzzzzzzzzzzz
(PID.TID 0001.0001) //    141 -..-aaabbbcccdddeeefffggghhhiiijjjkkkklllmmmnnnnoooopppqqqqrrrrsssssttttuuuuuvvvvvwwwwwwwxxxxxxxyyyyyyyyyzzzzzzzzzzzzzzzzzzzzzzz
(PID.TID 0001.0001) //    140 -..-aaabbcccddddeeefffggghhhiiijjjkkkllllmmmnnnnoooppppqqqqrrrrsssstttttuuuuuvvvvvwwwwwwxxxxxxxyyyyyyyyyzzzzzzzzzzzzzzzzzzzzzzzz
(PID.TID 0001.0001) //    139 -..-aabbbcccdddeeeffffggghhhiiijjjkkkllllmmmnnnnoooppppqqqqrrrrsssstttttuuuuuvvvvvwwwwwwxxxxxxxyyyyyyyyyzzzzzzzzzzzzzzzzz+++++++
(PID.TID 0001.0001) //    138 -..-aabbbcccdddeeeffffggghhhiiijjjkkkllllmmmnnnnoooppppqqqqrrrrssssttttuuuuuvvvvvvwwwwwxxxxxxxyyyyyyyyyzzzzzzzzzzzzzzzz+++++++++
(PID.TID 0001.0001) //    137 -..-aabbbcccdddeeefffgggghhhiiijjjkkkllllmmmnnnooooppppqqqqrrrrssssttttuuuuuvvvvvwwwwwwxxxxxxxyyyyyyyyyzzzzzzzzzzzzzz+++++++++++
(PID.TID 0001.0001) //    136 -..-aabbbcccdddeeefffggghhhhiiijjjkkklllmmmmnnnooooppppqqqrrrrsssssttttuuuuuvvvvvwwwwwwxxxxxxxyyyyyyyyzzzzzzzzzzzzzz++++++++++++
(PID.TID 0001.0001) //    135 -..-aabbbcccdddeeefffggghhhhiiijjjkkklllmmmmnnnoooopppqqqqrrrrsssstttttuuuuuvvvvvwwwwwwxxxxxxyyyyyyyyyzzzzzzzzzzzzz+++++++++++++
(PID.TID 0001.0001) //    134 -..-aabbbcccdddeeefffggghhhiiiijjjkkklllmmmmnnnoooopppqqqqrrrrsssstttttuuuuvvvvvvwwwwwxxxxxxxyyyyyyyyzzzzzzzzzzzzz++++++++++++++
(PID.TID 0001.0001) //    133 a..aaabbbcccdddeeefffggghhhiiiijjjkkklllmmmmnnnoooopppqqqqrrrrsssstttttuuuuvvvvvwwwwwwxxxxxxxyyyyyyyyzzzzzzzzzzzz+++++++++++++++
(PID.TID 0001.0001) //    132 a..aaabbbcccdddeeefffggghhhiiiijjjkkklllmmmmnnnoooopppqqqqrrrrssssttttuuuuuvvvvvwwwwwwxxxxxxxyyyyyyyyzzzzzzzzzzzz+++++++++++++++
(PID.TID 0001.0001) //    131 a..aaabbbcccdddeeefffggghhhiiiijjjkkklllmmmmnnnoooppppqqqqrrrrssssttttuuuuuvvvvvwwwwwwxxxxxxyyyyyyyyzzzzzzzzzzzz++++++++++++++++
(PID.TID 0001.0001) //    130 a..aaabbbcccdddeeefffggghhhiiijjjjkkklllmmmnnnnoooppppqqqqrrrrssssttttuuuuuvvvvvwwwwwwxxxxxxyyyyyyyyzzzzzzzzzzzz++++++++++++++++
(PID.TID 0001.0001) //    129 a..aaabbbcccdddeeefffggghhhiiijjjjkkklllmmmnnnnoooppppqqqqrrrrssssttttuuuuuvvvvvwwwwwwxxxxxxyyyyyyyyzzzzzzzzzzz+++++++++++++++++
(PID.TID 0001.0001) //    128 a..aaabbbcccdddeeefffggghhhiiijjjjkkklllmmmnnnnoooppppqqqqrrrrssssttttuuuuuvvvvvwwwwwxxxxxxxyyyyyyyyzzzzzzzzzzz+++++++++++++++++
(PID.TID 0001.0001) //    127 a..aaabbbcccdddeeefffggghhhiiijjjjkkklllmmmnnnnoooppppqqqqrrrrssssttttuuuuuvvvvvwwwwwxxxxxxxyyyyyyyyzzzzzzzzzzz+++++++++++++++++
(PID.TID 0001.0001) //    126 a..aaabbbcccdddeeefffggghhhiiijjjjkkklllmmmnnnnoooppppqqqqrrrrssssttttuuuuuvvvvvwwwwwxxxxxxxyyyyyyyyzzzzzzzzzzz+++++++++++++++++
(PID.TID 0001.0001) //    125 a..aaabbbcccdddeeefffggghhhiiijjjjkkklllmmmnnnnoooppppqqqqrrrrssssttttuuuuuvvvvvwwwwwxxxxxxxyyyyyyyyzzzzzzzzzzz+++++++++++++++++
(PID.TID 0001.0001) //    124 a..aaabbbcccdddeeefffggghhhiiijjjjkkklllmmmnnnnoooppppqqqqrrrrssssttttuuuuuvvvvvwwwwwxxxxxxxyyyyyyyyzzzzzzzzzzz+++++++++++++++++
(PID.TID 0001.0001) //    123 a..aaabbbcccdddeeefffggghhhiiijjjjkkklllmmmnnnnoooppppqqqqrrrrssssttttuuuuuvvvvvwwwwwxxxxxxxyyyyyyyyzzzzzzzzzzz+++++++++++++++++
(PID.TID 0001.0001) // =======================================================
(PID.TID 0001.0001) // END OF FIELD                                          =
(PID.TID 0001.0001) // =======================================================
(PID.TID 0001.0001) 
(PID.TID 0001.0001) // =======================================================
(PID.TID 0001.0001) // Field Model Ro_surf (ini_masks_etc)
(PID.TID 0001.0001) // CMIN =          1.000000000000000E+32
(PID.TID 0001.0001) // CMAX =         -1.000000000000000E+32
(PID.TID 0001.0001) // CINT =          0.000000000000000E+00
(PID.TID 0001.0001) // SYMBOLS (CMIN->CMAX): -abcdefghijklmnopqrstuvwxyz+
(PID.TID 0001.0001) //                  0.0: .
(PID.TID 0001.0001) // RANGE I (Lo:Hi:Step):(    -1:   126:     1)
(PID.TID 0001.0001) // RANGE J (Lo:Hi:Step):(   250:   123:    -1)
(PID.TID 0001.0001) // RANGE K (Lo:Hi:Step):(   1:   1:   1)
(PID.TID 0001.0001) // =======================================================
(PID.TID 0001.0001) // =======================================================
(PID.TID 0001.0001) // END OF FIELD                                          =
(PID.TID 0001.0001) // =======================================================
(PID.TID 0001.0001) 
(PID.TID 0001.0001) // =======================================================
(PID.TID 0001.0001) // Field hFacC at iteration          0
(PID.TID 0001.0001) // CMIN =          9.000040039062500E-01
(PID.TID 0001.0001) // CMAX =          9.999638671875001E-01
(PID.TID 0001.0001) // CINT =          3.702217158564817E-03
(PID.TID 0001.0001) // SYMBOLS (CMIN->CMAX): -abcdefghijklmnopqrstuvwxyz+
(PID.TID 0001.0001) //                  0.0: .
(PID.TID 0001.0001) // RANGE I (Lo:Hi:Step):(    -1:   126:     1)
(PID.TID 0001.0001) // RANGE J (Lo:Hi:Step):(   250:   123:    -1)
(PID.TID 0001.0001) // RANGE K (Lo:Hi:Step):(   1:   1:   1)
(PID.TID 0001.0001) // =======================================================
(PID.TID 0001.0001) K =   1
(PID.TID 0001.0001) //                I=8       I=18      I=28      I=38      I=48      I=58      I=68      I=78      I=88      I=98      I=108     I=118
(PID.TID 0001.0001) // |--J--|101234567|901234567|901234567|901234567|901234567|901234567|901234567|901234567|901234567|901234567|901234567|901234567|90123456
(PID.TID 0001.0001) //    250 +..++++++++++++++++++++++++++++++++++++++++++++++++++++++++++++++++++++++++++++++++++++++++++++++++++++++++++++++++++zzzzzzzzzzz
(PID.TID 0001.0001) //    249 ................................................................................................................................
(PID.TID 0001.0001) //    248 ................................................................................................................................
(PID.TID 0001.0001) //    247 +..++++++++++++++++++++++++++++++++++++++++++++++++++++++++++++++++++++++++++++++++++++++++++++++++++++++++++++++++++zzzzzzzzzzz
(PID.TID 0001.0001) //    246 +..+++++++++++++++++++++++++++++++++++++++++++++++++zzzzzzzzzzzzzzzzzzzzzzzzzzzzzzzzzzzzzzzzzzzzzzzzzzzzzzzzzzzzzzzzzzzzzzzzzzzz
(PID.TID 0001.0001) //    245 +..++++++++++++++++++++++++++++++++++zzzzzzzzzzzzzzzzzzzzzzzzzzzzzzzzzzzzzzzzzzzzzzzzzzzzzzzzzzzzzzzzzzzzzzzzzzzzzzzzzzzzzzzzzzz
(PID.TID 0001.0001) //    244 +..++++++++++++++++++++++++++zzzzzzzzzzzzzzzzzzzzzzzzzzzzzzzzzzzzzzzzzzzzzzzzzzzzzzzzzzzzzzzzzzzzzzzzzzzzzzzzzzyyyyyyyyyyyyyyyyy
(PID.TID 0001.0001) //    243 +..+++++++++++++++++++++zzzzzzzzzzzzzzzzzzzzzzzzzzzzzzzzzzzzzzzzzzzzzzzzzzzzyyyyyyyyyyyyyyyyyyyyyyyyyyyyyyyyyyyyyyyyyyyyyyyyyyyy
(PID.TID 0001.0001) //    242 +..+++++++++++++++++zzzzzzzzzzzzzzzzzzzzzzzzzzzzzzzzzzzzzzzzzyyyyyyyyyyyyyyyyyyyyyyyyyyyyyyyyyyyyyyyyyyyyyyyyyyyyyyyyyyyyyyyyyyy
(PID.TID 0001.0001) //    241 +..+++++++++++++++zzzzzzzzzzzzzzzzzzzzzzzzzzzzzzzzzzyyyyyyyyyyyyyyyyyyyyyyyyyyyyyyyyyyyyyyyyyyyyyyyyyyyyyyyyyyxxxxxxxxxxxxxxxxxx
(PID.TID 0001.0001) //    240 +..+++++++++++++zzzzzzzzzzzzzzzzzzzzzzzzzzzzzyyyyyyyyyyyyyyyyyyyyyyyyyyyyyyyyyyyyyyyxxxxxxxxxxxxxxxxxxxxxxxxxxxxxxxxxxxxxxxxxxxx
(PID.TID 0001.0001) //    239 +..+++++++++++zzzzzzzzzzzzzzzzzzzzzzzzzzyyyyyyyyyyyyyyyyyyyyyyyyyyyyyyyyxxxxxxxxxxxxxxxxxxxxxxxxxxxxxxxxxxxxxxxxxxxxxxxxxxxxxxxx
(PID.TID 0001.0001) //    238 +..++++++++++zzzzzzzzzzzzzzzzzzzzzzzyyyyyyyyyyyyyyyyyyyyyyyyyyyxxxxxxxxxxxxxxxxxxxxxxxxxxxxxxxxxxxxxxxxxxxxxxxwwwwwwwwwwwwwwwwww
(PID.TID 0001.0001) //    237 +..+++++++++zzzzzzzzzzzzzzzzzzzzzyyyyyyyyyyyyyyyyyyyyyyyyxxxxxxxxxxxxxxxxxxxxxxxxxxxxxxxxxwwwwwwwwwwwwwwwwwwwwwwwwwwwwwwwwwwwwww
(PID.TID 0001.0001) //    236 +..++++++++zzzzzzzzzzzzzzzzzzzzyyyyyyyyyyyyyyyyyyyyyxxxxxxxxxxxxxxxxxxxxxxxxxxwwwwwwwwwwwwwwwwwwwwwwwwwwwwwwwwwwwwwwwwwwwwwwwwww
(PID.TID 0001.0001) //    235 +..++++++++zzzzzzzzzzzzzzzzzyyyyyyyyyyyyyyyyyyyyxxxxxxxxxxxxxxxxxxxxxxxwwwwwwwwwwwwwwwwwwwwwwwwwwwwwwwwwwwwwwwwvvvvvvvvvvvvvvvvv
(PID.TID 0001.0001) //    234 +..+++++++zzzzzzzzzzzzzzzzzyyyyyyyyyyyyyyyyyxxxxxxxxxxxxxxxxxxxxwwwwwwwwwwwwwwwwwwwwwwwwwwwwwvvvvvvvvvvvvvvvvvvvvvvvvvvvvvvvvvvv
(PID.TID 0001.0001) //    233 +..+++++++zzzzzzzzzzzzzzzyyyyyyyyyyyyyyyyxxxxxxxxxxxxxxxxxxxwwwwwwwwwwwwwwwwwwwwwwwvvvvvvvvvvvvvvvvvvvvvvvvvvvvvvvvvvvvvvvvvvvvv
(PID.TID 0001.0001) //    232 +..++++++zzzzzzzzzzzzzzzyyyyyyyyyyyyyyyxxxxxxxxxxxxxxxxwwwwwwwwwwwwwwwwwwwwwvvvvvvvvvvvvvvvvvvvvvvvvvvvvvvvvvvvuuuuuuuuuuuuuuuuu
(PID.TID 0001.0001) //    231 +..++++++zzzzzzzzzzzzzyyyyyyyyyyyyyyxxxxxxxxxxxxxxxxwwwwwwwwwwwwwwwwwwvvvvvvvvvvvvvvvvvvvvvvvvvvuuuuuuuuuuuuuuuuuuuuuuuuuuuuuuuu
(PID.TID 0001.0001) //    230 +..+++++zzzzzzzzzzzzzyyyyyyyyyyyyyxxxxxxxxxxxxxxxwwwwwwwwwwwwwwwwvvvvvvvvvvvvvvvvvvvvvvuuuuuuuuuuuuuuuuuuuuuuuuuuuuuuuuuuuuuuuuu
(PID.TID 0001.0001) //    229 +..+++++zzzzzzzzzzzzyyyyyyyyyyyyyxxxxxxxxxxxxxwwwwwwwwwwwwwwwvvvvvvvvvvvvvvvvvvvuuuuuuuuuuuuuuuuuuuuuuuuuuuuuuuuuttttttttttttttt
(PID.TID 0001.0001) //    228 +..+++++zzzzzzzzzzzyyyyyyyyyyyyxxxxxxxxxxxxxwwwwwwwwwwwwwwvvvvvvvvvvvvvvvvuuuuuuuuuuuuuuuuuuuuuuuutttttttttttttttttttttttttttttt
(PID.TID 0001.0001) //    227 +..+++++zzzzzzzzzzzyyyyyyyyyyyxxxxxxxxxxxxwwwwwwwwwwwwwvvvvvvvvvvvvvvvuuuuuuuuuuuuuuuuuuuutttttttttttttttttttttttttttttttttttttt
(PID.TID 0001.0001) //    226 +..++++zzzzzzzzzzzyyyyyyyyyyyxxxxxxxxxxxwwwwwwwwwwwwvvvvvvvvvvvvvvuuuuuuuuuuuuuuuuutttttttttttttttttttttttttttttttssssssssssssss
(PID.TID 0001.0001) //    225 +..++++zzzzzzzzzzyyyyyyyyyyxxxxxxxxxxxwwwwwwwwwwwwvvvvvvvvvvvvvuuuuuuuuuuuuuuuttttttttttttttttttttttssssssssssssssssssssssssssss
(PID.TID 0001.0001) //    224 +..++++zzzzzzzzzzyyyyyyyyyxxxxxxxxxxxwwwwwwwwwwwvvvvvvvvvvvvuuuuuuuuuuuuuuttttttttttttttttttssssssssssssssssssssssssssssssssssss
(PID.TID 0001.0001) //    223 +..++++zzzzzzzzzyyyyyyyyyxxxxxxxxxxwwwwwwwwwwwvvvvvvvvvvvuuuuuuuuuuuuuttttttttttttttttssssssssssssssssssssssssssssssrrrrrrrrrrrr
(PID.TID 0001.0001) //    222 +..++++zzzzzzzzyyyyyyyyyyxxxxxxxxxwwwwwwwwwwvvvvvvvvvvvuuuuuuuuuuuuttttttttttttttssssssssssssssssssssssrrrrrrrrrrrrrrrrrrrrrrrrr
(PID.TID 0001.0001) //    221 +..+++zzzzzzzzzyyyyyyyyyxxxxxxxxxwwwwwwwwwvvvvvvvvvvvuuuuuuuuuuutttttttttttttssssssssssssssssssrrrrrrrrrrrrrrrrrrrrrrrrrrrrrrrrr
(PID.TID 0001.0001) //    220 +..+++zzzzzzzzzyyyyyyyyxxxxxxxxxwwwwwwwwwvvvvvvvvvvuuuuuuuuuutttttttttttttsssssssssssssssrrrrrrrrrrrrrrrrrrrrrrrrrrrrrrrqqqqqqqq
(PID.TID 0001.0001) //    219 +..+++zzzzzzzzyyyyyyyyxxxxxxxxxwwwwwwwwvvvvvvvvvvuuuuuuuuuutttttttttttssssssssssssssrrrrrrrrrrrrrrrrrrrrrqqqqqqqqqqqqqqqqqqqqqqq
(PID.TID 0001.0001) //    218 +..+++zzzzzzzzyyyyyyyyxxxxxxxxwwwwwwwwvvvvvvvvvuuuuuuuuuutttttttttttssssssssssssrrrrrrrrrrrrrrrrrqqqqqqqqqqqqqqqqqqqqqqqqqqqqqqq
(PID.TID 0001.0001) //    217 +..+++zzzzzzzyyyyyyyyxxxxxxxxwwwwwwwwvvvvvvvvvuuuuuuuuuttttttttttssssssssssssrrrrrrrrrrrrrrrqqqqqqqqqqqqqqqqqqqqqqqqqqqqqqqqqqqq
(PID.TID 0001.0001) //    216 +..+++zzzzzzzyyyyyyyxxxxxxxxwwwwwwwwvvvvvvvvuuuuuuuuuttttttttttsssssssssssrrrrrrrrrrrrrqqqqqqqqqqqqqqqqqqqqppppppppppppppppppppp
(PID.TID 0001.0001) //    215 +..+++zzzzzzzyyyyyyyxxxxxxxwwwwwwwwvvvvvvvvuuuuuuuuttttttttttssssssssssrrrrrrrrrrrrqqqqqqqqqqqqqqqqqpppppppppppppppppppppppppppp
(PID.TID 0001.0001) //    214 +..+++zzzzzzyyyyyyyxxxxxxxxwwwwwwwvvvvvvvvuuuuuuuutttttttttsssssssssrrrrrrrrrrrrqqqqqqqqqqqqqqpppppppppppppppppppppppppppppppppp
(PID.TID 0001.0001) //    213 +..++zzzzzzzyyyyyyyxxxxxxxwwwwwwwvvvvvvvvuuuuuuutttttttttsssssssssrrrrrrrrrrrqqqqqqqqqqqqqppppppppppppppppppppoooooooooooooooooo
(PID.TID 0001.0001) //    212 +..++zzzzzzzyyyyyyyxxxxxxwwwwwwwvvvvvvvuuuuuuuuttttttttsssssssssrrrrrrrrrrqqqqqqqqqqqqppppppppppppppppoooooooooooooooooooooooooo
(PID.TID 0001.0001) //    211 +..++zzzzzzzyyyyyyxxxxxxxwwwwwwvvvvvvvuuuuuuuuttttttttssssssssrrrrrrrrrqqqqqqqqqqqpppppppppppppppooooooooooooooooooooooooooooooo
(PID.TID 0001.0001) //    210 +..++zzzzzzyyyyyyyxxxxxxwwwwwwwvvvvvvvuuuuuuutttttttssssssssrrrrrrrrrqqqqqqqqqqpppppppppppppoooooooooooooooooooooonnnnnnnnnnnnnn
(PID.TID 0001.0001) //    209 +..++zzzzzzyyyyyyxxxxxxxwwwwwwvvvvvvvuuuuuuutttttttssssssssrrrrrrrrqqqqqqqqqqpppppppppppooooooooooooooooonnnnnnnnnnnnnnnnnnnnnnn
(PID.TID 0001.0001) //    208 +..++zzzzzzyyyyyyxxxxxxwwwwwwvvvvvvvuuuuuuutttttttsssssssrrrrrrrrqqqqqqqqqpppppppppppoooooooooooooonnnnnnnnnnnnnnnnnnnnnnnnnnnnn
(PID.TID 0001.0001) //    207 +..++zzzzzzyyyyyyxxxxxxwwwwwwvvvvvvuuuuuuuttttttssssssssrrrrrrrqqqqqqqqqppppppppppooooooooooooonnnnnnnnnnnnnnnnnnnnnnnnnmmmmmmmm
(PID.TID 0001.0001) //    206 +..++zzzzzzyyyyyxxxxxxwwwwwwvvvvvvuuuuuuuttttttsssssssrrrrrrrrqqqqqqqqpppppppppoooooooooooonnnnnnnnnnnnnnnnnmmmmmmmmmmmmmmmmmmmm
(PID.TID 0001.0001) //    205 +..++zzzzzyyyyyyxxxxxxwwwwwwvvvvvvuuuuuuttttttsssssssrrrrrrrqqqqqqqqpppppppppooooooooooonnnnnnnnnnnnnnmmmmmmmmmmmmmmmmmmmmmmmmmm
(PID.TID 0001.0001) //    204 +..++zzzzzyyyyyyxxxxxwwwwwwvvvvvvuuuuuuttttttsssssssrrrrrrrqqqqqqqpppppppppoooooooooonnnnnnnnnnnnnmmmmmmmmmmmmmmmmmmmmmmmmmmmmmm
(PID.TID 0001.0001) //    203 +..++zzzzzyyyyyyxxxxxwwwwwwvvvvvuuuuuuttttttsssssssrrrrrrqqqqqqqqppppppppooooooooonnnnnnnnnnnnmmmmmmmmmmmmmmmmmmmlllllllllllllll
(PID.TID 0001.0001) //    202 +..++zzzzzyyyyyxxxxxxwwwwwvvvvvvuuuuuttttttsssssssrrrrrrqqqqqqqppppppppooooooooonnnnnnnnnnmmmmmmmmmmmmmmmmllllllllllllllllllllll
(PID.TID 0001.0001) //    201 +..++zzzzzyyyyyxxxxxwwwwwwvvvvvuuuuuuttttttssssssrrrrrrqqqqqqqpppppppooooooooonnnnnnnnnnmmmmmmmmmmmmmlllllllllllllllllllllllllll
(PID.TID 0001.0001) //    200 +..++zzzzzyyyyyxxxxxwwwwwvvvvvvuuuuuttttttssssssrrrrrrqqqqqqppppppppoooooooonnnnnnnnnmmmmmmmmmmmmllllllllllllllllllllllkkkkkkkkk
(PID.TID 0001.0001) //    199 +..++zzzzzyyyyyxxxxxwwwwwvvvvvuuuuuttttttssssssrrrrrrqqqqqqpppppppoooooooonnnnnnnnnmmmmmmmmmmlllllllllllllllllkkkkkkkkkkkkkkkkkk
(PID.TID 0001.0001) //    198 +..+zzzzzyyyyyxxxxxwwwwwvvvvvvuuuuutttttssssssrrrrrrqqqqqqpppppppooooooonnnnnnnnmmmmmmmmmmllllllllllllllkkkkkkkkkkkkkkkkkkkkkkkk
(PID.TID 0001.0001) //    197 +..+zzzzzyyyyyxxxxxwwwwwvvvvvuuuuuttttttsssssrrrrrrqqqqqqppppppoooooooonnnnnnnmmmmmmmmmmllllllllllllkkkkkkkkkkkkkkkkkkkkkkkkkkkk
(PID.TID 0001.0001) //    196 +..+zzzzzyyyyyxxxxxwwwwwvvvvvuuuuutttttsssssrrrrrrqqqqqqppppppooooooonnnnnnnnmmmmmmmmlllllllllllkkkkkkkkkkkkkkkkkkkjjjjjjjjjjjjj
(PID.TID 0001.0001) //    195 +..+zzzzzyyyyyxxxxwwwwwvvvvvuuuuutttttssssssrrrrrqqqqqqppppppooooooonnnnnnnmmmmmmmmllllllllllkkkkkkkkkkkkkkkjjjjjjjjjjjjjjjjjjjj
(PID.TID 0001.0001) //    194 +..+zzzzzyyyyyxxxxwwwwwvvvvvuuuuutttttsssssrrrrrqqqqqqppppppoooooonnnnnnnmmmmmmmmllllllllllkkkkkkkkkkkkkjjjjjjjjjjjjjjjjjjjjjjjj
(PID.TID 0001.0001) //    193 +..+zzzzzyyyyxxxxxwwwwwvvvvuuuuutttttsssssrrrrrqqqqqqppppppoooooonnnnnnnmmmmmmmlllllllllkkkkkkkkkkkkjjjjjjjjjjjjjjjjjjjjjjjjjjjj
(PID.TID 0001.0001) //    192 +..+zzzzzyyyyxxxxxwwwwvvvvvuuuuutttttsssssrrrrrqqqqqppppppoooooonnnnnnmmmmmmmmllllllllkkkkkkkkkkkjjjjjjjjjjjjjjjjjiiiiiiiiiiiiii
(PID.TID 0001.0001) //    191 +..+zzzzzyyyyxxxxxwwwwvvvvvuuuutttttsssssrrrrrqqqqqppppppoooooonnnnnnmmmmmmmllllllllkkkkkkkkkkjjjjjjjjjjjjjjiiiiiiiiiiiiiiiiiiii
(PID.TID 0001.0001) //    190 +..+zzzzzyyyyxxxxwwwwwvvvvuuuuutttttssssrrrrrqqqqqppppppoooooonnnnnnmmmmmmmlllllllkkkkkkkkkjjjjjjjjjjjjjiiiiiiiiiiiiiiiiiiiiiiii
(PID.TID 0001.0001) //    189 +..+zzzzyyyyyxxxxwwwwvvvvvuuuutttttsssssrrrrrqqqqqpppppoooooonnnnnnmmmmmmllllllllkkkkkkkkjjjjjjjjjjjiiiiiiiiiiiiiiiiiiiiiiiiiiii
(PID.TID 0001.0001) //    188 +..+zzzzyyyyyxxxxwwwwvvvvvuuuutttttssssrrrrrqqqqqpppppoooooonnnnnnmmmmmmlllllllkkkkkkkkjjjjjjjjjjiiiiiiiiiiiiiiiiihhhhhhhhhhhhhh
(PID.TID 0001.0001) //    187 +..+zzzzyyyyxxxxxwwwwvvvvuuuuuttttsssssrrrrqqqqqpppppoooooonnnnnnmmmmmmlllllllkkkkkkkjjjjjjjjjjiiiiiiiiiiiiihhhhhhhhhhhhhhhhhhhh
(PID.TID 0001.0001) //    186 +..+zzzzyyyyxxxxwwwwwvvvvuuuutttttssssrrrrrqqqqqpppppooooonnnnnnmmmmmmllllllkkkkkkkkjjjjjjjjiiiiiiiiiiiihhhhhhhhhhhhhhhhhhhhhhhh
(PID.TID 0001.0001) //    185 +..+zzzzyyyyxxxxwwwwvvvvvuuuuttttsssssrrrrqqqqqpppppooooonnnnnnmmmmmlllllllkkkkkkkjjjjjjjjiiiiiiiiiiihhhhhhhhhhhhhhhhhhhhhhhhhhh
(PID.TID 0001.0001) //    184 +..+zzzzyyyyxxxxwwwwvvvvuuuuuttttssssrrrrrqqqqpppppooooonnnnnnmmmmmlllllllkkkkkkjjjjjjjjiiiiiiiiiihhhhhhhhhhhhhhhhhggggggggggggg
(PID.TID 0001.0001) //    183 +..+zzzzyyyyxxxxwwwwvvvvuuuutttttssssrrrrqqqqqpppppooooonnnnnmmmmmllllllkkkkkkkjjjjjjjjiiiiiiiiihhhhhhhhhhhhhhgggggggggggggggggg
(PID.TID 0001.0001) //    182 +..+zzzzyyyyxxxxwwwwvvvvuuuuttttssssrrrrrqqqqpppppooooonnnnnmmmmmllllllkkkkkkkjjjjjjjiiiiiiiiihhhhhhhhhhhhgggggggggggggggggggggg
(PID.TID 0001.0001) //    181 +..+zzzzyyyyxxxxwwwwvvvvuuuuttttssssrrrrqqqqqppppooooonnnnnmmmmmmlllllkkkkkkkjjjjjjjiiiiiiiihhhhhhhhhhhggggggggggggggggggggggggg
(PID.TID 0001.0001) //    180 +..+zzzzyyyyxxxxwwwvvvvuuuuttttsssssrrrrqqqqpppppooooonnnnmmmmmmlllllkkkkkkjjjjjjjiiiiiiiihhhhhhhhhhggggggggggggggggggffffffffff
(PID.TID 0001.0001) //    179 +..+zzzzyyyyxxxwwwwvvvvuuuuttttssssrrrrqqqqqppppooooonnnnnmmmmmlllllkkkkkkjjjjjjjiiiiiiihhhhhhhhhhggggggggggggggffffffffffffffff
(PID.TID 0001.0001) //    178 +..+zzzzyyyxxxxwwwwvvvvuuuuttttssssrrrrqqqqpppppoooonnnnnmmmmmlllllkkkkkkjjjjjjjiiiiiiihhhhhhhhhggggggggggggffffffffffffffffffff
(PID.TID 0001.0001) //    177 +..+zzzzyyyxxxxwwwwvvvvuuuuttttssssrrrrqqqqppppooooonnnnmmmmmllllllkkkkkjjjjjjiiiiiiihhhhhhhhhgggggggggggfffffffffffffffffffffff
(PID.TID 0001.0001) //    176 +..+zzzzyyyxxxxwwwwvvvuuuuttttssssrrrrqqqqpppppoooonnnnnmmmmmlllllkkkkkjjjjjjiiiiiiihhhhhhhhggggggggggffffffffffffffffffffffffff
(PID.TID 0001.0001) //    175 +..+zzzzyyyxxxxwwwwvvvuuuuttttssssrrrrqqqqppppooooonnnnmmmmmlllllkkkkkjjjjjjiiiiiiihhhhhhhggggggggggffffffffffffffffeeeeeeeeeeee
(PID.TID 0001.0001) //    174 +..+zzzyyyyxxxxwwwvvvvuuuuttttssssrrrrqqqqppppoooonnnnnmmmmlllllkkkkkkjjjjjiiiiiiihhhhhhhgggggggggffffffffffffffeeeeeeeeeeeeeeee
(PID.TID 0001.0001) //    173 +..+zzzyyyyxxxxwwwvvvvuuuutttssssrrrrqqqqppppooooonnnnmmmmmlllllkkkkkjjjjjiiiiiiihhhhhhhggggggggffffffffffffeeeeeeeeeeeeeeeeeeee
(PID.TID 0001.0001) //    172 +..+zzzyyyyxxxwwwwvvvvuuuttttssssrrrrqqqqppppoooonnnnmmmmmlllllkkkkkjjjjjiiiiiihhhhhhhggggggggfffffffffffeeeeeeeeeeeeeeeeeeeeeee
(PID.TID 0001.0001) //    171 +..+zzzyyyyxxxwwwwvvvvuuuttttssssrrrrqqqppppooooonnnnmmmmlllllkkkkkjjjjjjiiiiihhhhhhhggggggggffffffffffeeeeeeeeeeeeeeeeeeeeeeeee
(PID.TID 0001.0001) //    170 +..+zzzyyyyxxxwwwwvvvuuuuttttsssrrrrqqqqppppoooonnnnmmmmmlllllkkkkjjjjjjiiiiiihhhhhhgggggggffffffffffeeeeeeeeeeeeeeeeddddddddddd
(PID.TID 0001.0001) //    169 +..+zzzyyyyxxxwwwwvvvuuuutttssssrrrrqqqqppppoooonnnnmmmmlllllkkkkkjjjjjiiiiiihhhhhhgggggggfffffffffeeeeeeeeeeeeeeddddddddddddddd
(PID.TID 0001.0001) //    168 +..+zzzyyyyxxxwwwwvvvuuuutttssssrrrrqqqppppoooonnnnnmmmmllllkkkkkjjjjjiiiiiihhhhhhgggggggffffffffeeeeeeeeeeeeddddddddddddddddddd
(PID.TID 0001.0001) //    167 +..+zzzyyyyxxxwwwvvvvuuuttttssssrrrqqqqppppoooonnnnmmmmlllllkkkkkjjjjjiiiiihhhhhhgggggggffffffffeeeeeeeeeeeddddddddddddddddddddd
(PID.TID 0001.0001) //    166 +..+zzzyyyxxxxwwwvvvvuuuttttsssrrrrqqqqppppoooonnnnmmmmllllkkkkkjjjjjiiiiihhhhhhgggggggfffffffeeeeeeeeeeeddddddddddddddddddddddd
(PID.TID 0001.0001) //    165 +..+zzzyyyxxxxwwwvvvvuuuttttsssrrrrqqqqpppoooonnnnmmmmlllllkkkkjjjjjiiiiihhhhhhgggggggfffffffeeeeeeeeeedddddddddddddddddddcccccc
(PID.TID 0001.0001) //    164 +..+zzzyyyxxxxwwwvvvvuuutttssssrrrrqqqppppoooonnnnmmmmllllkkkkkjjjjjiiiiihhhhhgggggggfffffffeeeeeeeeedddddddddddddddcccccccccccc
(PID.TID 0001.0001) //    163 +..+zzzyyyxxxxwwwvvvuuuutttssssrrrqqqqppppoooonnnnmmmmllllkkkkjjjjjiiiiihhhhhhggggggfffffffeeeeeeeedddddddddddddcccccccccccccccc
(PID.TID 0001.0001) //    162 +..+zzzyyyxxxxwwwvvvuuuutttssssrrrqqqqpppoooonnnnmmmmllllkkkkkjjjjiiiiihhhhhhggggggfffffffeeeeeeeeddddddddddddcccccccccccccccccc
(PID.TID 0001.0001) //    161 +..+zzzyyyxxxxwwwvvvuuuutttsssrrrrqqqqpppoooonnnnmmmmllllkkkkjjjjjiiiiihhhhhggggggfffffffeeeeeeeeddddddddddccccccccccccccccccccc
(PID.TID 0001.0001) //    160 +..+zzzyyyxxxwwwwvvvuuuttttsssrrrrqqqppppoooonnnmmmmlllllkkkkjjjjiiiiihhhhhggggggfffffffeeeeeeedddddddddddcccccccccccccccccccccc
(PID.TID 0001.0001) //    159 +..+zzzyyyxxxwwwwvvvuuuttttsssrrrrqqqppppooonnnnmmmmllllkkkkjjjjjiiiiihhhhhgggggfffffffeeeeeeeddddddddddcccccccccccccccccccccccc
(PID.TID 0001.0001) //    158 +..+zzzyyyxxxwwwwvvvuuutttssssrrrqqqqpppoooonnnnmmmmllllkkkkjjjjiiiiihhhhhggggggffffffeeeeeeedddddddddcccccccccccccccccbbbbbbbbb
(PID.TID 0001.0001) //    157 +..+zzzyyyxxxwwwvvvvuuutttssssrrrqqqqpppoooonnnnmmmllllkkkkkjjjjiiiiihhhhhgggggffffffeeeeeeedddddddddccccccccccccccbbbbbbbbbbbbb
(PID.TID 0001.0001) //    156 +..+zzzyyyxxxwwwvvvvuuutttssssrrrqqqppppoooonnnmmmmllllkkkkjjjjjiiiihhhhhgggggffffffeeeeeeedddddddddccccccccccccbbbbbbbbbbbbbbbb
(PID.TID 0001.0001) //    155 +..+zzzyyyxxxwwwvvvvuuutttsssrrrrqqqppppooonnnnmmmmllllkkkkjjjjiiiiihhhhhgggggffffffeeeeeeddddddddccccccccccccbbbbbbbbbbbbbbbbbb
(PID.TID 0001.0001) //    154 +..+zzzyyyxxxwwwvvvuuuutttsssrrrrqqqppppooonnnnmmmmlllkkkkkjjjjiiiihhhhhgggggffffffeeeeeeedddddddcccccccccccbbbbbbbbbbbbbbbbbbbb
(PID.TID 0001.0001) //    153 +..+zzzyyyxxxwwwvvvuuuutttsssrrrqqqqpppoooonnnnmmmllllkkkkjjjjiiiiihhhhhgggggfffffeeeeeeedddddddcccccccccccbbbbbbbbbbbbbbbbbbbbb
(PID.TID 0001.0001) //    152 +..+zzzyyyxxxwwwvvvuuuttttsssrrrqqqqpppoooonnnmmmmllllkkkkjjjjiiiihhhhhgggggffffffeeeeeedddddddccccccccccbbbbbbbbbbbbbbbbbbbbbbb
(PID.TID 0001.0001) //    151 +..+zzzyyyxxxwwwvvvuuuttttsssrrrqqqqpppooonnnnmmmmllllkkkkjjjjiiiihhhhhgggggfffffeeeeeeddddddddcccccccccbbbbbbbbbbbbbbbbbbbbbbbb
(PID.TID 0001.0001) //    150 +..+zzzyyyxxxwwwvvvuuutttssssrrrqqqppppooonnnnmmmmlllkkkkjjjjiiiiihhhhgggggffffffeeeeeedddddddcccccccccbbbbbbbbbbbbbbbbaaaaaaaaa
(PID.TID 0001.0001) //    149 +..+zzzyyyxxxwwwvvvuuutttssssrrrqqqppppooonnnnmmmllllkkkkjjjjiiiihhhhhgggggfffffeeeeeedddddddcccccccccbbbbbbbbbbbbbbaaaaaaaaaaaa
(PID.TID 0001.0001) //    148 +..+zzzyyyxxxwwwvvvuuutttssssrrrqqqpppoooonnnmmmmllllkkkkjjjjiiiihhhhhggggffffffeeeeeeddddddcccccccccbbbbbbbbbbbbbaaaaaaaaaaaaaa
(PID.TID 0001.0001) //    147 +..+zzzyyyxxxwwwvvvuuutttsssrrrrqqqpppoooonnnmmmmllllkkkkjjjjiiiihhhhgggggfffffeeeeeedddddddccccccccbbbbbbbbbbbbaaaaaaaaaaaaaaaa
(PID.TID 0001.0001) //    146 +..+zzzyyyxxxwwwvvvuuutttsssrrrrqqqpppoooonnnmmmmlllkkkkjjjjiiiihhhhhgggggfffffeeeeeeddddddccccccccbbbbbbbbbbbaaaaaaaaaaaaaaaaaa
(PID.TID 0001.0001) //    145 +..+zzzyyyxxxwwwvvvuuutttsssrrrqqqqpppooonnnnmmmmlllkkkkjjjjiiiihhhhhggggfffffeeeeeedddddddcccccccbbbbbbbbbbbaaaaaaaaaaaaaaaaaaa
(PID.TID 0001.0001) //    144 +..+zzzyyyxxxwwwvvvuuutttsssrrrqqqqpppooonnnnmmmllllkkkkjjjjiiiihhhhgggggfffffeeeeeeddddddccccccccbbbbbbbbbbaaaaaaaaaaaaaaaaaaaa
(PID.TID 0001.0001) //    143 +..+zzzyyyxxxwwwvvvuuutttsssrrrqqqppppooonnnnmmmllllkkkkjjjjiiiihhhhgggggfffffeeeeeddddddccccccccbbbbbbbbbbaaaaaaaaaaaaaaaaaaaaa
(PID.TID 0001.0001) //    142 +..+zzzyyyxxxwwwvvvuuutttsssrrrqqqppppooonnnmmmmllllkkkjjjjiiiihhhhhggggfffffeeeeeeddddddcccccccbbbbbbbbbbaaaaaaaaaaaaaaaaaaaaaa
(PID.TID 0001.0001) //    141 +..+zzzyyyxxxwwwvvvuuutttsssrrrqqqppppooonnnmmmmllllkkkjjjjiiiihhhhhggggfffffeeeeedddddddcccccccbbbbbbbbbaaaaaaaaaaaaaaaaaaaaaaa
(PID.TID 0001.0001) //    140 +..+zzzyyxxxwwwwvvvuuutttsssrrrqqqpppoooonnnmmmmlllkkkkjjjjiiiihhhhgggggfffffeeeeeddddddcccccccbbbbbbbbbaaaaaaaaaaaaaaaaaaaaaaaa
(PID.TID 0001.0001) //    139 +..+zzyyyxxxwwwvvvuuuutttsssrrrqqqpppoooonnnmmmmlllkkkkjjjjiiiihhhhgggggfffffeeeeeddddddcccccccbbbbbbbbbaaaaaaaaaaaaaaaaa-------
(PID.TID 0001.0001) //    138 +..+zzyyyxxxwwwvvvuuuutttsssrrrqqqpppoooonnnmmmmlllkkkkjjjjiiiihhhhggggfffffeeeeeedddddcccccccbbbbbbbbbaaaaaaaaaaaaaaaa---------
(PID.TID 0001.0001) //    137 +..+zzyyyxxxwwwvvvuuuttttsssrrrqqqpppoooonnnmmmllllkkkkjjjjiiiihhhhggggfffffeeeeeddddddcccccccbbbbbbbbbaaaaaaaaaaaaaa-----------
(PID.TID 0001.0001) //    136 +..+zzyyyxxxwwwvvvuuutttssssrrrqqqpppooonnnnmmmllllkkkkjjjiiiihhhhhggggfffffeeeeeddddddcccccccbbbbbbbbaaaaaaaaaaaaaa------------
(PID.TID 0001.0001) //    135 +..+zzyyyxxxwwwvvvuuutttssssrrrqqqpppooonnnnmmmllllkkkjjjjiiiihhhhgggggfffffeeeeeddddddccccccbbbbbbbbbaaaaaaaaaaaaa-------------
(PID.TID 0001.0001) //    134 +..+zzyyyxxxwwwvvvuuutttsssrrrrqqqpppooonnnnmmmllllkkkjjjjiiiihhhhgggggffffeeeeeedddddcccccccbbbbbbbbaaaaaaaaaaaaa--------------
(PID.TID 0001.0001) //    133 z..zzzyyyxxxwwwvvvuuutttsssrrrrqqqpppooonnnnmmmllllkkkjjjjiiiihhhhgggggffffeeeeeddddddcccccccbbbbbbbbaaaaaaaaaaaa---------------
(PID.TID 0001.0001) //    132 z..zzzyyyxxxwwwvvvuuutttsssrrrrqqqpppooonnnnmmmllllkkkjjjjiiiihhhhggggfffffeeeeeddddddcccccccbbbbbbbbaaaaaaaaaaaa---------------
(PID.TID 0001.0001) //    131 z..zzzyyyxxxwwwvvvuuutttsssrrrrqqqpppooonnnnmmmlllkkkkjjjjiiiihhhhggggfffffeeeeeddddddccccccbbbbbbbbaaaaaaaaaaaa----------------
(PID.TID 0001.0001) //    130 z..zzzyyyxxxwwwvvvuuutttsssrrrqqqqpppooonnnmmmmlllkkkkjjjjiiiihhhhggggfffffeeeeeddddddccccccbbbbbbbbaaaaaaaaaaaa----------------
(PID.TID 0001.0001) //    129 z..zzzyyyxxxwwwvvvuuutttsssrrrqqqqpppooonnnmmmmlllkkkkjjjjiiiihhhhggggfffffeeeeeddddddccccccbbbbbbbbaaaaaaaaaaa-----------------
(PID.TID 0001.0001) //    128 z..zzzyyyxxxwwwvvvuuutttsssrrrqqqqpppooonnnmmmmlllkkkkjjjjiiiihhhhggggfffffeeeeedddddcccccccbbbbbbbbaaaaaaaaaaa-----------------
(PID.TID 0001.0001) //    127 z..zzzyyyxxxwwwvvvuuutttsssrrrqqqqpppooonnnmmmmlllkkkkjjjjiiiihhhhggggfffffeeeeedddddcccccccbbbbbbbbaaaaaaaaaaa-----------------
(PID.TID 0001.0001) //    126 z..zzzyyyxxxwwwvvvuuutttsssrrrqqqqpppooonnnmmmmlllkkkkjjjjiiiihhhhggggfffffeeeeedddddcccccccbbbbbbbbaaaaaaaaaaa-----------------
(PID.TID 0001.0001) //    125 z..zzzyyyxxxwwwvvvuuutttsssrrrqqqqpppooonnnmmmmlllkkkkjjjjiiiihhhhggggfffffeeeeedddddcccccccbbbbbbbbaaaaaaaaaaa-----------------
(PID.TID 0001.0001) //    124 z..zzzyyyxxxwwwvvvuuutttsssrrrqqqqpppooonnnmmmmlllkkkkjjjjiiiihhhhggggfffffeeeeedddddcccccccbbbbbbbbaaaaaaaaaaa-----------------
(PID.TID 0001.0001) //    123 z..zzzyyyxxxwwwvvvuuutttsssrrrqqqqpppooonnnmmmmlllkkkkjjjjiiiihhhhggggfffffeeeeedddddcccccccbbbbbbbbaaaaaaaaaaa-----------------
(PID.TID 0001.0001) // =======================================================
(PID.TID 0001.0001) // END OF FIELD                                          =
(PID.TID 0001.0001) // =======================================================
(PID.TID 0001.0001) 
(PID.TID 0001.0001) // =======================================================
(PID.TID 0001.0001) // Field hFacW at iteration          0
(PID.TID 0001.0001) // CMIN =          9.000040039062500E-01
(PID.TID 0001.0001) // CMAX =          9.999398437500000E-01
(PID.TID 0001.0001) // CINT =          3.701327401620370E-03
(PID.TID 0001.0001) // SYMBOLS (CMIN->CMAX): -abcdefghijklmnopqrstuvwxyz+
(PID.TID 0001.0001) //                  0.0: .
(PID.TID 0001.0001) // RANGE I (Lo:Hi:Step):(    -1:   126:     1)
(PID.TID 0001.0001) // RANGE J (Lo:Hi:Step):(   250:   123:    -1)
(PID.TID 0001.0001) // RANGE K (Lo:Hi:Step):(   1:   1:   1)
(PID.TID 0001.0001) // =======================================================
(PID.TID 0001.0001) K =   1
(PID.TID 0001.0001) //                I=8       I=18      I=28      I=38      I=48      I=58      I=68      I=78      I=88      I=98      I=108     I=118
(PID.TID 0001.0001) // |--J--|101234567|901234567|901234567|901234567|901234567|901234567|901234567|901234567|901234567|901234567|901234567|901234567|90123456
(PID.TID 0001.0001) //    250 +...++++++++++++++++++++++++++++++++++++++++++++++++++++++++++++++++++++++++++++++++++++++++++++++++++++++++++++++++++++++++++++
(PID.TID 0001.0001) //    249 ................................................................................................................................
(PID.TID 0001.0001) //    248 ................................................................................................................................
(PID.TID 0001.0001) //    247 +...++++++++++++++++++++++++++++++++++++++++++++++++++++++++++++++++++++++++++++++++++++++++++++++++++++++++++++++++++++++++++++
(PID.TID 0001.0001) //    246 +...+++++++++++++++++++++++++++++++++++++++++++++++++zzzzzzzzzzzzzzzzzzzzzzzzzzzzzzzzzzzzzzzzzzzzzzzzzzzzzzzzzzzzzzzzzzzzzzzzzzz
(PID.TID 0001.0001) //    245 +...+++++++++++++++++++++++++++++++++zzzzzzzzzzzzzzzzzzzzzzzzzzzzzzzzzzzzzzzzzzzzzzzzzzzzzzzzzzzzzzzzzzzzzzzzzzzzzzzzzzzzzzzzzzz
(PID.TID 0001.0001) //    244 +...+++++++++++++++++++++++++zzzzzzzzzzzzzzzzzzzzzzzzzzzzzzzzzzzzzzzzzzzzzzzzzzzzzzzzzzzzzzzzzzzzzzzzzzzzzzzzzzzyyyyyyyyyyyyyyyy
(PID.TID 0001.0001) //    243 +...++++++++++++++++++++zzzzzzzzzzzzzzzzzzzzzzzzzzzzzzzzzzzzzzzzzzzzzzzzzzzzyyyyyyyyyyyyyyyyyyyyyyyyyyyyyyyyyyyyyyyyyyyyyyyyyyyy
(PID.TID 0001.0001) //    242 +...+++++++++++++++++zzzzzzzzzzzzzzzzzzzzzzzzzzzzzzzzzzzzzzzzyyyyyyyyyyyyyyyyyyyyyyyyyyyyyyyyyyyyyyyyyyyyyyyyyyyyyyyyyyyyyyyyyyy
(PID.TID 0001.0001) //    241 +...++++++++++++++zzzzzzzzzzzzzzzzzzzzzzzzzzzzzzzzzzyyyyyyyyyyyyyyyyyyyyyyyyyyyyyyyyyyyyyyyyyyyyyyyyyyyyyyyyyyyxxxxxxxxxxxxxxxxx
(PID.TID 0001.0001) //    240 +...++++++++++++zzzzzzzzzzzzzzzzzzzzzzzzzzzzzyyyyyyyyyyyyyyyyyyyyyyyyyyyyyyyyyyyyyyyyxxxxxxxxxxxxxxxxxxxxxxxxxxxxxxxxxxxxxxxxxxx
(PID.TID 0001.0001) //    239 +...+++++++++++zzzzzzzzzzzzzzzzzzzzzzzzzyyyyyyyyyyyyyyyyyyyyyyyyyyyyyyyyxxxxxxxxxxxxxxxxxxxxxxxxxxxxxxxxxxxxxxxxxxxxxxxxxxxxxxxx
(PID.TID 0001.0001) //    238 +...+++++++++zzzzzzzzzzzzzzzzzzzzzzzyyyyyyyyyyyyyyyyyyyyyyyyyyyxxxxxxxxxxxxxxxxxxxxxxxxxxxxxxxxxxxxxxxxxxxxxxxxwwwwwwwwwwwwwwwww
(PID.TID 0001.0001) //    237 +...++++++++zzzzzzzzzzzzzzzzzzzzzyyyyyyyyyyyyyyyyyyyyyyyyxxxxxxxxxxxxxxxxxxxxxxxxxxxxxxxxxwwwwwwwwwwwwwwwwwwwwwwwwwwwwwwwwwwwwww
(PID.TID 0001.0001) //    236 +...++++++++zzzzzzzzzzzzzzzzzzzyyyyyyyyyyyyyyyyyyyyyxxxxxxxxxxxxxxxxxxxxxxxxxxxwwwwwwwwwwwwwwwwwwwwwwwwwwwwwwwwwwwwwwwwwwwwwwwww
(PID.TID 0001.0001) //    235 +...+++++++zzzzzzzzzzzzzzzzzzyyyyyyyyyyyyyyyyyyyxxxxxxxxxxxxxxxxxxxxxxxwwwwwwwwwwwwwwwwwwwwwwwwwwwwwwwwwwwwwwwwvvvvvvvvvvvvvvvvv
(PID.TID 0001.0001) //    234 +...++++++zzzzzzzzzzzzzzzzzyyyyyyyyyyyyyyyyyxxxxxxxxxxxxxxxxxxxxxwwwwwwwwwwwwwwwwwwwwwwwwwwwwvvvvvvvvvvvvvvvvvvvvvvvvvvvvvvvvvvv
(PID.TID 0001.0001) //    233 +...++++++zzzzzzzzzzzzzzzyyyyyyyyyyyyyyyyxxxxxxxxxxxxxxxxxxxwwwwwwwwwwwwwwwwwwwwwwwvvvvvvvvvvvvvvvvvvvvvvvvvvvvvvvvvvvvvvvvvvvvv
(PID.TID 0001.0001) //    232 +...+++++zzzzzzzzzzzzzzzyyyyyyyyyyyyyyyxxxxxxxxxxxxxxxxxwwwwwwwwwwwwwwwwwwwwvvvvvvvvvvvvvvvvvvvvvvvvvvvvvvvvvvvvuuuuuuuuuuuuuuuu
(PID.TID 0001.0001) //    231 +...+++++zzzzzzzzzzzzzyyyyyyyyyyyyyyyxxxxxxxxxxxxxxxwwwwwwwwwwwwwwwwwwvvvvvvvvvvvvvvvvvvvvvvvvvvuuuuuuuuuuuuuuuuuuuuuuuuuuuuuuuu
(PID.TID 0001.0001) //    230 +...+++++zzzzzzzzzzzzyyyyyyyyyyyyyyxxxxxxxxxxxxxxwwwwwwwwwwwwwwwwvvvvvvvvvvvvvvvvvvvvvvuuuuuuuuuuuuuuuuuuuuuuuuuuuuuuuuuuuuuuuuu
(PID.TID 0001.0001) //    229 +...++++zzzzzzzzzzzzyyyyyyyyyyyyyxxxxxxxxxxxxxwwwwwwwwwwwwwwwvvvvvvvvvvvvvvvvvvvuuuuuuuuuuuuuuuuuuuuuuuuuuuuuuuuuttttttttttttttt
(PID.TID 0001.0001) //    228 +...++++zzzzzzzzzzzyyyyyyyyyyyyxxxxxxxxxxxxxwwwwwwwwwwwwwwvvvvvvvvvvvvvvvvvuuuuuuuuuuuuuuuuuuuuuuutttttttttttttttttttttttttttttt
(PID.TID 0001.0001) //    227 +...++++zzzzzzzzzzzyyyyyyyyyyyxxxxxxxxxxxxwwwwwwwwwwwwwvvvvvvvvvvvvvvvuuuuuuuuuuuuuuuuuuuutttttttttttttttttttttttttttttttttttttt
(PID.TID 0001.0001) //    226 +...+++zzzzzzzzzzzyyyyyyyyyyyxxxxxxxxxxxwwwwwwwwwwwwvvvvvvvvvvvvvvuuuuuuuuuuuuuuuuutttttttttttttttttttttttttttttttssssssssssssss
(PID.TID 0001.0001) //    225 +...+++zzzzzzzzzzyyyyyyyyyyyxxxxxxxxxxwwwwwwwwwwwwvvvvvvvvvvvvvuuuuuuuuuuuuuuutttttttttttttttttttttttsssssssssssssssssssssssssss
(PID.TID 0001.0001) //    224 +...+++zzzzzzzzzzyyyyyyyyyxxxxxxxxxxxwwwwwwwwwwwvvvvvvvvvvvvuuuuuuuuuuuuuuttttttttttttttttttssssssssssssssssssssssssssssssssssss
(PID.TID 0001.0001) //    223 +...+++zzzzzzzzzyyyyyyyyyyxxxxxxxxxwwwwwwwwwwwvvvvvvvvvvvuuuuuuuuuuuuuttttttttttttttttsssssssssssssssssssssssssssssssrrrrrrrrrrr
(PID.TID 0001.0001) //    222 +...+++zzzzzzzzzyyyyyyyyyxxxxxxxxxwwwwwwwwwwvvvvvvvvvvvuuuuuuuuuuuuttttttttttttttssssssssssssssssssssssrrrrrrrrrrrrrrrrrrrrrrrrr
(PID.TID 0001.0001) //    221 +...++zzzzzzzzzyyyyyyyyyxxxxxxxxxwwwwwwwwwvvvvvvvvvvvuuuuuuuuuuutttttttttttttssssssssssssssssssrrrrrrrrrrrrrrrrrrrrrrrrrrrrrrrrr
(PID.TID 0001.0001) //    220 +...++zzzzzzzzzyyyyyyyyxxxxxxxxxwwwwwwwwwvvvvvvvvvvuuuuuuuuuutttttttttttttsssssssssssssssrrrrrrrrrrrrrrrrrrrrrrrrrrrrrrrqqqqqqqq
(PID.TID 0001.0001) //    219 +...++zzzzzzzzyyyyyyyyxxxxxxxxxwwwwwwwwwvvvvvvvvvuuuuuuuuuutttttttttttssssssssssssssrrrrrrrrrrrrrrrrrrrrrqqqqqqqqqqqqqqqqqqqqqqq
(PID.TID 0001.0001) //    218 +...++zzzzzzzzyyyyyyyyxxxxxxxxwwwwwwwwvvvvvvvvvuuuuuuuuuutttttttttttssssssssssssrrrrrrrrrrrrrrrrrqqqqqqqqqqqqqqqqqqqqqqqqqqqqqqq
(PID.TID 0001.0001) //    217 +...++zzzzzzzyyyyyyyyxxxxxxxxwwwwwwwwvvvvvvvvvuuuuuuuuuttttttttttssssssssssssrrrrrrrrrrrrrrrqqqqqqqqqqqqqqqqqqqqqqqqqqqqqqqqqqqq
(PID.TID 0001.0001) //    216 +...++zzzzzzzyyyyyyyyxxxxxxxwwwwwwwwvvvvvvvvuuuuuuuuuttttttttttsssssssssssrrrrrrrrrrrrrqqqqqqqqqqqqqqqqqqqqqpppppppppppppppppppp
(PID.TID 0001.0001) //    215 +...++zzzzzzzyyyyyyyxxxxxxxwwwwwwwwvvvvvvvvuuuuuuuuttttttttttssssssssssrrrrrrrrrrrrqqqqqqqqqqqqqqqqqpppppppppppppppppppppppppppp
(PID.TID 0001.0001) //    214 +...++zzzzzzyyyyyyyyxxxxxxxwwwwwwwvvvvvvvvuuuuuuuutttttttttsssssssssrrrrrrrrrrrrqqqqqqqqqqqqqqpppppppppppppppppppppppppppppppppp
(PID.TID 0001.0001) //    213 +...+zzzzzzzyyyyyyyxxxxxxxwwwwwwwvvvvvvvvuuuuuuutttttttttsssssssssrrrrrrrrrrrqqqqqqqqqqqqqppppppppppppppppppppoooooooooooooooooo
(PID.TID 0001.0001) //    212 +...+zzzzzzzyyyyyyyxxxxxxwwwwwwwvvvvvvvvuuuuuuuttttttttsssssssssrrrrrrrrrrqqqqqqqqqqqqppppppppppppppppoooooooooooooooooooooooooo
(PID.TID 0001.0001) //    211 +...+zzzzzzzyyyyyyxxxxxxxwwwwwwwvvvvvvvuuuuuuuttttttttssssssssrrrrrrrrrqqqqqqqqqqqpppppppppppppppooooooooooooooooooooooooooooooo
(PID.TID 0001.0001) //    210 +...+zzzzzzyyyyyyyxxxxxxwwwwwwwvvvvvvvuuuuuuutttttttssssssssrrrrrrrrrqqqqqqqqqqpppppppppppppoooooooooooooooooooooonnnnnnnnnnnnnn
(PID.TID 0001.0001) //    209 +...+zzzzzzyyyyyyxxxxxxxwwwwwwvvvvvvvuuuuuuutttttttssssssssrrrrrrrrqqqqqqqqqqpppppppppppooooooooooooooooonnnnnnnnnnnnnnnnnnnnnnn
(PID.TID 0001.0001) //    208 +...+zzzzzzyyyyyyxxxxxxwwwwwwvvvvvvvuuuuuuutttttttsssssssrrrrrrrrqqqqqqqqqpppppppppppoooooooooooooonnnnnnnnnnnnnnnnnnnnnnnnnnnnn
(PID.TID 0001.0001) //    207 +...+zzzzzzyyyyyyxxxxxxwwwwwwvvvvvvuuuuuuuttttttssssssssrrrrrrrqqqqqqqqqppppppppppooooooooooooonnnnnnnnnnnnnnnnnnnnnnnnnmmmmmmmm
(PID.TID 0001.0001) //    206 +...+zzzzzzyyyyyxxxxxxwwwwwwvvvvvvuuuuuuuttttttsssssssrrrrrrrrqqqqqqqqpppppppppoooooooooooonnnnnnnnnnnnnnnnnnmmmmmmmmmmmmmmmmmmm
(PID.TID 0001.0001) //    205 +...+zzzzzyyyyyyxxxxxxwwwwwwvvvvvvuuuuuuttttttsssssssrrrrrrrqqqqqqqqpppppppppooooooooooonnnnnnnnnnnnnnmmmmmmmmmmmmmmmmmmmmmmmmmm
(PID.TID 0001.0001) //    204 +...+zzzzzyyyyyyxxxxxwwwwwwvvvvvvuuuuuuttttttsssssssrrrrrrrqqqqqqqpppppppppoooooooooonnnnnnnnnnnnnmmmmmmmmmmmmmmmmmmmmmmmmmmmmmm
(PID.TID 0001.0001) //    203 +...+zzzzzyyyyyyxxxxxwwwwwwvvvvvuuuuuuttttttsssssssrrrrrrqqqqqqqqppppppppooooooooonnnnnnnnnnnnmmmmmmmmmmmmmmmmmmmlllllllllllllll
(PID.TID 0001.0001) //    202 +...+zzzzzyyyyyxxxxxxwwwwwvvvvvvuuuuuttttttsssssssrrrrrrqqqqqqqppppppppooooooooonnnnnnnnnnmmmmmmmmmmmmmmmmllllllllllllllllllllll
(PID.TID 0001.0001) //    201 +...+zzzzzyyyyyxxxxxwwwwwwvvvvvuuuuuuttttttssssssrrrrrrqqqqqqqpppppppooooooooonnnnnnnnnnmmmmmmmmmmmmmlllllllllllllllllllllllllll
(PID.TID 0001.0001) //    200 +...+zzzzzyyyyyxxxxxwwwwwvvvvvvuuuuuttttttssssssrrrrrrqqqqqqqpppppppoooooooonnnnnnnnnmmmmmmmmmmmmllllllllllllllllllllllkkkkkkkkk
(PID.TID 0001.0001) //    199 +...+zzzzzyyyyyxxxxxwwwwwvvvvvuuuuuttttttssssssrrrrrrqqqqqqpppppppoooooooonnnnnnnnnmmmmmmmmmmlllllllllllllllllkkkkkkkkkkkkkkkkkk
(PID.TID 0001.0001) //    198 +...+zzzzyyyyyxxxxxwwwwwvvvvvvuuuuutttttssssssrrrrrrqqqqqqpppppppooooooonnnnnnnnmmmmmmmmmmllllllllllllllkkkkkkkkkkkkkkkkkkkkkkkk
(PID.TID 0001.0001) //    197 z...zzzzzyyyyyxxxxxwwwwwvvvvvuuuuuttttttsssssrrrrrrqqqqqqppppppoooooooonnnnnnnmmmmmmmmmmllllllllllllkkkkkkkkkkkkkkkkkkkkkkkkkkkk
(PID.TID 0001.0001) //    196 z...zzzzzyyyyyxxxxxwwwwwvvvvvuuuuutttttsssssrrrrrrqqqqqqppppppooooooonnnnnnnnmmmmmmmmlllllllllllkkkkkkkkkkkkkkkkkkkjjjjjjjjjjjjj
(PID.TID 0001.0001) //    195 z...zzzzzyyyyyxxxxxwwwwvvvvvuuuuutttttssssssrrrrrqqqqqqppppppooooooonnnnnnnmmmmmmmmllllllllllkkkkkkkkkkkkkkkjjjjjjjjjjjjjjjjjjjj
(PID.TID 0001.0001) //    194 z...zzzzzyyyyyxxxxwwwwwvvvvvuuuuutttttsssssrrrrrqqqqqqppppppoooooonnnnnnnmmmmmmmmllllllllllkkkkkkkkkkkkkjjjjjjjjjjjjjjjjjjjjjjjj
(PID.TID 0001.0001) //    193 z...zzzzzyyyyxxxxxwwwwwvvvvuuuuutttttsssssrrrrrqqqqqqppppppoooooonnnnnnnmmmmmmmlllllllllkkkkkkkkkkkkjjjjjjjjjjjjjjjjjjjjjjjjjjjj
(PID.TID 0001.0001) //    192 z...zzzzzyyyyxxxxxwwwwvvvvvuuuuutttttsssssrrrrrqqqqqppppppoooooonnnnnnmmmmmmmmllllllllkkkkkkkkkkkjjjjjjjjjjjjjjjjjiiiiiiiiiiiiii
(PID.TID 0001.0001) //    191 z...zzzzzyyyyxxxxxwwwwvvvvvuuuutttttsssssrrrrrqqqqqppppppoooooonnnnnnmmmmmmmllllllllkkkkkkkkkkjjjjjjjjjjjjjjiiiiiiiiiiiiiiiiiiii
(PID.TID 0001.0001) //    190 z...zzzzzyyyyxxxxwwwwwvvvvuuuuutttttssssrrrrrqqqqqqpppppoooooonnnnnnmmmmmmmlllllllkkkkkkkkkjjjjjjjjjjjjjiiiiiiiiiiiiiiiiiiiiiiii
(PID.TID 0001.0001) //    189 z...zzzzyyyyyxxxxwwwwvvvvvuuuutttttsssssrrrrrqqqqqpppppoooooonnnnnnmmmmmmllllllllkkkkkkkkjjjjjjjjjjjiiiiiiiiiiiiiiiiiiiiiiiiiiii
(PID.TID 0001.0001) //    188 z...zzzzyyyyyxxxxwwwwvvvvvuuuutttttssssrrrrrqqqqqpppppoooooonnnnnnmmmmmmlllllllkkkkkkkkjjjjjjjjjjiiiiiiiiiiiiiiiiihhhhhhhhhhhhhh
(PID.TID 0001.0001) //    187 z...zzzzyyyyxxxxxwwwwvvvvuuuuuttttsssssrrrrqqqqqpppppoooooonnnnnnmmmmmmlllllllkkkkkkkjjjjjjjjjjiiiiiiiiiiiiihhhhhhhhhhhhhhhhhhhh
(PID.TID 0001.0001) //    186 z...zzzzyyyyxxxxxwwwwvvvvuuuutttttssssrrrrrqqqqqpppppooooonnnnnnmmmmmmllllllkkkkkkkkjjjjjjjjiiiiiiiiiiiiihhhhhhhhhhhhhhhhhhhhhhh
(PID.TID 0001.0001) //    185 z...zzzzyyyyxxxxwwwwvvvvvuuuuttttsssssrrrrqqqqqpppppooooonnnnnnmmmmmlllllllkkkkkkkjjjjjjjjiiiiiiiiiiihhhhhhhhhhhhhhhhhhhhhhhhhhh
(PID.TID 0001.0001) //    184 z...zzzzyyyyxxxxwwwwvvvvuuuuuttttssssrrrrrqqqqpppppooooonnnnnnmmmmmlllllllkkkkkkjjjjjjjjiiiiiiiiiiihhhhhhhhhhhhhhhhggggggggggggg
(PID.TID 0001.0001) //    183 z...zzzzyyyyxxxxwwwwvvvvuuuutttttssssrrrrqqqqqpppppooooonnnnnmmmmmllllllkkkkkkkjjjjjjjjiiiiiiiiihhhhhhhhhhhhhhgggggggggggggggggg
(PID.TID 0001.0001) //    182 z...zzzzyyyyxxxxwwwwvvvvuuuuttttssssrrrrrqqqqpppppooooonnnnnmmmmmllllllkkkkkkkjjjjjjjiiiiiiiiihhhhhhhhhhhhgggggggggggggggggggggg
(PID.TID 0001.0001) //    181 z...zzzzyyyyxxxxwwwwvvvvuuuuttttssssrrrrqqqqqppppooooonnnnnmmmmmmlllllkkkkkkkjjjjjjjiiiiiiiihhhhhhhhhhhggggggggggggggggggggggggg
(PID.TID 0001.0001) //    180 z...zzzzyyyyxxxxwwwvvvvuuuuttttsssssrrrrqqqqpppppooooonnnnmmmmmmlllllkkkkkkjjjjjjjiiiiiiiihhhhhhhhhhggggggggggggggggggffffffffff
(PID.TID 0001.0001) //    179 z...zzzzyyyyxxxwwwwvvvvuuuuttttssssrrrrqqqqqppppooooonnnnnmmmmmlllllkkkkkkjjjjjjjiiiiiiihhhhhhhhhhggggggggggggggffffffffffffffff
(PID.TID 0001.0001) //    178 z...zzzzyyyxxxxwwwwvvvvuuuuttttssssrrrrqqqqpppppoooonnnnnmmmmmlllllkkkkkkjjjjjjjiiiiiiihhhhhhhhhggggggggggggffffffffffffffffffff
(PID.TID 0001.0001) //    177 z...zzzzyyyxxxxwwwwvvvvuuuuttttssssrrrrqqqqppppooooonnnnmmmmmllllllkkkkkjjjjjjiiiiiiihhhhhhhhhgggggggggggfffffffffffffffffffffff
(PID.TID 0001.0001) //    176 z...zzzzyyyxxxxwwwwvvvvuuuttttssssrrrrqqqqpppppoooonnnnnmmmmmlllllkkkkkjjjjjjiiiiiiihhhhhhhhggggggggggffffffffffffffffffffffffff
(PID.TID 0001.0001) //    175 z...zzzzyyyxxxxwwwwvvvuuuuttttssssrrrrqqqqppppooooonnnnmmmmmlllllkkkkkjjjjjjiiiiiiihhhhhhhggggggggggffffffffffffffffeeeeeeeeeeee
(PID.TID 0001.0001) //    174 z...zzzyyyyxxxxwwwvvvvuuuuttttssssrrrrqqqqppppoooonnnnnmmmmlllllkkkkkkjjjjjiiiiiiihhhhhhhgggggggggffffffffffffffeeeeeeeeeeeeeeee
(PID.TID 0001.0001) //    173 z...zzzyyyyxxxxwwwvvvvuuuutttssssrrrrqqqqppppooooonnnnmmmmmlllllkkkkkjjjjjiiiiiiihhhhhhhggggggggffffffffffffeeeeeeeeeeeeeeeeeeee
(PID.TID 0001.0001) //    172 z...zzzyyyyxxxxwwwvvvvuuuttttssssrrrrqqqqppppoooonnnnmmmmmlllllkkkkkjjjjjiiiiiihhhhhhhggggggggfffffffffffeeeeeeeeeeeeeeeeeeeeeee
(PID.TID 0001.0001) //    171 z...zzzyyyyxxxwwwwvvvvuuuttttssssrrrrqqqppppooooonnnnmmmmlllllkkkkkjjjjjjiiiiihhhhhhhggggggggffffffffffeeeeeeeeeeeeeeeeeeeeeeeee
(PID.TID 0001.0001) //    170 z...zzzyyyyxxxwwwwvvvuuuuttttsssrrrrqqqqppppoooonnnnmmmmmlllllkkkkjjjjjjiiiiiihhhhhhgggggggffffffffffeeeeeeeeeeeeeeeeddddddddddd
(PID.TID 0001.0001) //    169 z...zzzyyyyxxxwwwwvvvuuuutttssssrrrrqqqqppppoooonnnnmmmmlllllkkkkkjjjjjiiiiiihhhhhhgggggggfffffffffeeeeeeeeeeeeeeddddddddddddddd
(PID.TID 0001.0001) //    168 z...zzzyyyyxxxwwwwvvvuuuutttssssrrrrqqqppppoooonnnnnmmmmllllkkkkkjjjjjiiiiiihhhhhhgggggggffffffffeeeeeeeeeeeeddddddddddddddddddd
(PID.TID 0001.0001) //    167 z...zzzyyyyxxxwwwvvvvuuuttttssssrrrqqqqppppoooonnnnmmmmlllllkkkkkjjjjjiiiiihhhhhhgggggggffffffffeeeeeeeeeeeddddddddddddddddddddd
(PID.TID 0001.0001) //    166 z...zzzyyyyxxxwwwvvvvuuuttttsssrrrrqqqqppppoooonnnnmmmmllllkkkkkjjjjjiiiiihhhhhhgggggggfffffffeeeeeeeeeeeddddddddddddddddddddddd
(PID.TID 0001.0001) //    165 z...zzzyyyxxxxwwwvvvvuuuttttsssrrrrqqqqpppoooonnnnmmmmlllllkkkkjjjjjiiiiihhhhhhgggggggfffffffeeeeeeeeeeddddddddddddddddddddccccc
(PID.TID 0001.0001) //    164 z...zzzyyyxxxxwwwvvvvuuutttssssrrrrqqqppppoooonnnnmmmmllllkkkkkjjjjjiiiiihhhhhgggggggfffffffeeeeeeeeedddddddddddddddcccccccccccc
(PID.TID 0001.0001) //    163 z...zzzyyyxxxxwwwvvvuuuutttssssrrrqqqqppppoooonnnnmmmmllllkkkkjjjjjiiiiihhhhhhggggggfffffffeeeeeeeedddddddddddddcccccccccccccccc
(PID.TID 0001.0001) //    162 z...zzzyyyxxxxwwwvvvuuuutttssssrrrqqqqpppoooonnnnmmmmllllkkkkkjjjjiiiiihhhhhhggggggfffffffeeeeeeeeddddddddddddcccccccccccccccccc
(PID.TID 0001.0001) //    161 z...zzzyyyxxxxwwwvvvuuuutttsssrrrrqqqqpppoooonnnnmmmmllllkkkkjjjjjiiiiihhhhhggggggfffffffeeeeeeeeddddddddddccccccccccccccccccccc
(PID.TID 0001.0001) //    160 z...zzzyyyxxxwwwwvvvuuuttttsssrrrrqqqppppoooonnnmmmmlllllkkkkjjjjiiiiihhhhhggggggfffffffeeeeeeedddddddddddcccccccccccccccccccccc
(PID.TID 0001.0001) //    159 z...zzzyyyxxxwwwwvvvuuuttttsssrrrrqqqppppooonnnnmmmmllllkkkkjjjjjiiiiihhhhhgggggfffffffeeeeeeeddddddddddcccccccccccccccccccccccc
(PID.TID 0001.0001) //    158 z...zzzyyyxxxwwwwvvvuuutttssssrrrqqqqpppoooonnnnmmmmllllkkkkjjjjiiiiihhhhhggggggffffffeeeeeeedddddddddcccccccccccccccccbbbbbbbbb
(PID.TID 0001.0001) //    157 z...zzzyyyxxxwwwvvvvuuutttssssrrrqqqqpppoooonnnnmmmllllkkkkkjjjjiiiiihhhhhgggggffffffeeeeeeedddddddddccccccccccccccbbbbbbbbbbbbb
(PID.TID 0001.0001) //    156 z...zzzyyyxxxwwwvvvvuuutttssssrrrqqqppppoooonnnmmmmllllkkkkjjjjjiiiihhhhhgggggffffffeeeeeeedddddddddccccccccccccbbbbbbbbbbbbbbbb
(PID.TID 0001.0001) //    155 z...zzzyyyxxxwwwvvvvuuutttsssrrrrqqqppppooonnnnmmmmllllkkkkjjjjiiiiihhhhhgggggffffffeeeeeeddddddddccccccccccccbbbbbbbbbbbbbbbbbb
(PID.TID 0001.0001) //    154 z...zzzyyyxxxwwwvvvuuuutttsssrrrrqqqppppooonnnnmmmmlllkkkkkjjjjiiiihhhhhgggggffffffeeeeeeedddddddcccccccccccbbbbbbbbbbbbbbbbbbbb
(PID.TID 0001.0001) //    153 z...zzzyyyxxxwwwvvvuuuutttsssrrrqqqqpppoooonnnnmmmllllkkkkjjjjiiiiihhhhhgggggfffffeeeeeeedddddddcccccccccccbbbbbbbbbbbbbbbbbbbbb
(PID.TID 0001.0001) //    152 z...zzzyyyxxxwwwvvvuuuttttsssrrrqqqqpppoooonnnmmmmllllkkkkjjjjiiiiihhhhgggggffffffeeeeeedddddddccccccccccbbbbbbbbbbbbbbbbbbbbbbb
(PID.TID 0001.0001) //    151 z...zzzyyyxxxwwwvvvuuuttttsssrrrqqqqpppooonnnnmmmmllllkkkkjjjjiiiihhhhhgggggfffffeeeeeeddddddddcccccccccbbbbbbbbbbbbbbbbbbbbbbbb
(PID.TID 0001.0001) //    150 z...zzzyyyxxxwwwvvvuuuttttsssrrrqqqppppooonnnnmmmmlllkkkkjjjjiiiiihhhhgggggffffffeeeeeedddddddcccccccccbbbbbbbbbbbbbbbbaaaaaaaaa
(PID.TID 0001.0001) //    149 z...zzzyyyxxxwwwvvvuuutttssssrrrqqqppppooonnnnmmmllllkkkkjjjjiiiihhhhhgggggfffffeeeeeedddddddcccccccccbbbbbbbbbbbbbbaaaaaaaaaaaa
(PID.TID 0001.0001) //    148 z...zzzyyyxxxwwwvvvuuutttssssrrrqqqpppoooonnnmmmmllllkkkkjjjjiiiihhhhhggggffffffeeeeeeddddddcccccccccbbbbbbbbbbbbbaaaaaaaaaaaaaa
(PID.TID 0001.0001) //    147 z...zzzyyyxxxwwwvvvuuutttsssrrrrqqqpppoooonnnmmmmllllkkkkjjjjiiiihhhhgggggfffffeeeeeedddddddccccccccbbbbbbbbbbbbaaaaaaaaaaaaaaaa
(PID.TID 0001.0001) //    146 z...zzzyyyxxxwwwvvvuuutttsssrrrrqqqpppoooonnnmmmmlllkkkkjjjjiiiiihhhhgggggfffffeeeeeeddddddccccccccbbbbbbbbbbbaaaaaaaaaaaaaaaaaa
(PID.TID 0001.0001) //    145 z...zzzyyyxxxwwwvvvuuutttsssrrrqqqqpppooonnnnmmmmlllkkkkjjjjiiiihhhhhggggfffffeeeeeedddddddcccccccbbbbbbbbbbbaaaaaaaaaaaaaaaaaaa
(PID.TID 0001.0001) //    144 z...zzzyyyxxxwwwvvvuuutttsssrrrqqqqpppooonnnnmmmllllkkkkjjjjiiiihhhhgggggfffffeeeeeeddddddccccccccbbbbbbbbbbaaaaaaaaaaaaaaaaaaaa
(PID.TID 0001.0001) //    143 z...zzzyyyxxxwwwvvvuuutttsssrrrqqqqpppooonnnnmmmllllkkkkjjjjiiiihhhhgggggfffffeeeeeddddddccccccccbbbbbbbbbbaaaaaaaaaaaaaaaaaaaaa
(PID.TID 0001.0001) //    142 z...zzzyyyxxxwwwvvvuuutttsssrrrqqqppppooonnnnmmmllllkkkjjjjiiiihhhhhggggfffffeeeeeeddddddcccccccbbbbbbbbbbaaaaaaaaaaaaaaaaaaaaaa
(PID.TID 0001.0001) //    141 z...zzzyyyxxxwwwvvvuuutttsssrrrqqqppppooonnnmmmmllllkkkjjjjiiiihhhhhggggfffffeeeeedddddddcccccccbbbbbbbbbaaaaaaaaaaaaaaaaaaaaaaa
(PID.TID 0001.0001) //    140 z...zzzyyyxxxwwwvvvuuutttsssrrrqqqpppoooonnnmmmmlllkkkkjjjjiiiihhhhgggggfffffeeeeeddddddcccccccbbbbbbbbbaaaaaaaaaaaaaaaaaaaaaaaa
(PID.TID 0001.0001) //    139 z...zzzyyxxxwwwvvvvuuutttsssrrrqqqpppoooonnnmmmmlllkkkkjjjjiiiihhhhgggggfffffeeeeeddddddcccccccbbbbbbbbbaaaaaaaaaaaaaaaaa-------
(PID.TID 0001.0001) //    138 z...zzyyyxxxwwwvvvuuuutttsssrrrqqqpppoooonnnmmmmlllkkkkjjjjiiiihhhhggggfffffeeeeeedddddcccccccbbbbbbbbbaaaaaaaaaaaaaaaa---------
(PID.TID 0001.0001) //    137 z...zzyyyxxxwwwvvvuuuttttsssrrrqqqpppoooonnnmmmllllkkkkjjjjiiiihhhhggggfffffeeeeeddddddcccccccbbbbbbbbbaaaaaaaaaaaaaa-----------
(PID.TID 0001.0001) //    136 z...zzyyyxxxwwwvvvuuutttssssrrrqqqpppooonnnnmmmllllkkkkjjjiiiihhhhhggggfffffeeeeeddddddcccccccbbbbbbbbaaaaaaaaaaaaaa------------
(PID.TID 0001.0001) //    135 z...zzyyyxxxwwwvvvuuutttssssrrrqqqpppooonnnnmmmllllkkkjjjjiiiihhhhgggggfffffeeeeeddddddccccccbbbbbbbbbaaaaaaaaaaaaa-------------
(PID.TID 0001.0001) //    134 z...zzyyyxxxwwwvvvuuutttssssrrrqqqpppooonnnnmmmllllkkkjjjjiiiihhhhgggggffffeeeeeedddddcccccccbbbbbbbbaaaaaaaaaaaaa--------------
(PID.TID 0001.0001) //    133 z...zzyyyxxxwwwvvvuuutttsssrrrrqqqpppooonnnnmmmllllkkkjjjjiiiihhhhgggggffffeeeeeddddddcccccccbbbbbbbbaaaaaaaaaaaa---------------
(PID.TID 0001.0001) //    132 z...zzyyyxxxwwwvvvuuutttsssrrrrqqqpppooonnnnmmmllllkkkjjjjiiiihhhhggggfffffeeeeeddddddcccccccbbbbbbbbaaaaaaaaaaaa---------------
(PID.TID 0001.0001) //    131 z...zzyyyxxxwwwvvvuuutttsssrrrrqqqpppooonnnnmmmlllkkkkjjjjiiiihhhhggggfffffeeeeeddddddccccccbbbbbbbbaaaaaaaaaaaa----------------
(PID.TID 0001.0001) //    130 z...zzyyyxxxwwwvvvuuutttsssrrrqqqqpppooonnnmmmmlllkkkkjjjjiiiihhhhggggfffffeeeeeddddddccccccbbbbbbbbaaaaaaaaaaaa----------------
(PID.TID 0001.0001) //    129 z...zzyyyxxxwwwvvvuuutttsssrrrqqqqpppooonnnmmmmlllkkkkjjjjiiiihhhhggggfffffeeeeeddddddccccccbbbbbbbbaaaaaaaaaaa-----------------
(PID.TID 0001.0001) //    128 z...zzyyyxxxwwwvvvuuutttsssrrrqqqqpppooonnnmmmmlllkkkkjjjjiiiihhhhggggfffffeeeeeddddddccccccbbbbbbbbaaaaaaaaaaa-----------------
(PID.TID 0001.0001) //    127 z...zzyyyxxxwwwvvvuuutttsssrrrqqqqpppooonnnmmmmlllkkkkjjjjiiiihhhhggggfffffeeeeedddddcccccccbbbbbbbbaaaaaaaaaaa-----------------
(PID.TID 0001.0001) //    126 z...zzyyyxxxwwwvvvuuutttsssrrrqqqqpppooonnnmmmmlllkkkkjjjjiiiihhhhggggfffffeeeeedddddcccccccbbbbbbbbaaaaaaaaaaa-----------------
(PID.TID 0001.0001) //    125 z...zzyyyxxxwwwvvvuuutttsssrrrqqqqpppooonnnmmmmlllkkkkjjjjiiiihhhhggggfffffeeeeedddddcccccccbbbbbbbbaaaaaaaaaaa-----------------
(PID.TID 0001.0001) //    124 z...zzyyyxxxwwwvvvuuutttsssrrrqqqqpppooonnnmmmmlllkkkkjjjjiiiihhhhggggfffffeeeeedddddcccccccbbbbbbbbaaaaaaaaaaa-----------------
(PID.TID 0001.0001) //    123 z...zzyyyxxxwwwvvvuuutttsssrrrqqqqpppooonnnmmmmlllkkkkjjjjiiiihhhhggggfffffeeeeedddddcccccccbbbbbbbbaaaaaaaaaaa-----------------
(PID.TID 0001.0001) // =======================================================
(PID.TID 0001.0001) // END OF FIELD                                          =
(PID.TID 0001.0001) // =======================================================
(PID.TID 0001.0001) 
(PID.TID 0001.0001) // =======================================================
(PID.TID 0001.0001) // Field hFacS at iteration          0
(PID.TID 0001.0001) // CMIN =          9.000040039062500E-01
(PID.TID 0001.0001) // CMAX =          9.999398437500000E-01
(PID.TID 0001.0001) // CINT =          3.701327401620370E-03
(PID.TID 0001.0001) // SYMBOLS (CMIN->CMAX): -abcdefghijklmnopqrstuvwxyz+
(PID.TID 0001.0001) //                  0.0: .
(PID.TID 0001.0001) // RANGE I (Lo:Hi:Step):(    -1:   126:     1)
(PID.TID 0001.0001) // RANGE J (Lo:Hi:Step):(   250:   123:    -1)
(PID.TID 0001.0001) // RANGE K (Lo:Hi:Step):(   1:   1:   1)
(PID.TID 0001.0001) // =======================================================
(PID.TID 0001.0001) K =   1
(PID.TID 0001.0001) //                I=8       I=18      I=28      I=38      I=48      I=58      I=68      I=78      I=88      I=98      I=108     I=118
(PID.TID 0001.0001) // |--J--|101234567|901234567|901234567|901234567|901234567|901234567|901234567|901234567|901234567|901234567|901234567|901234567|90123456
(PID.TID 0001.0001) //    250 ................................................................................................................................
(PID.TID 0001.0001) //    249 ................................................................................................................................
(PID.TID 0001.0001) //    248 ................................................................................................................................
(PID.TID 0001.0001) //    247 +..++++++++++++++++++++++++++++++++++++++++++++++++++zzzzzzzzzzzzzzzzzzzzzzzzzzzzzzzzzzzzzzzzzzzzzzzzzzzzzzzzzzzzzzzzzzzzzzzzzzz
(PID.TID 0001.0001) //    246 +..++++++++++++++++++++++++++++++++++zzzzzzzzzzzzzzzzzzzzzzzzzzzzzzzzzzzzzzzzzzzzzzzzzzzzzzzzzzzzzzzzzzzzzzzzzzzzzzzzzzzzzzzzzzz
(PID.TID 0001.0001) //    245 +..++++++++++++++++++++++++++zzzzzzzzzzzzzzzzzzzzzzzzzzzzzzzzzzzzzzzzzzzzzzzzzzzzzzzzzzzzzzzzzzzzzzzzzzzzzzzzzzzyyyyyyyyyyyyyyyy
(PID.TID 0001.0001) //    244 +..+++++++++++++++++++++zzzzzzzzzzzzzzzzzzzzzzzzzzzzzzzzzzzzzzzzzzzzzzzzzzzzyyyyyyyyyyyyyyyyyyyyyyyyyyyyyyyyyyyyyyyyyyyyyyyyyyyy
(PID.TID 0001.0001) //    243 +..++++++++++++++++++zzzzzzzzzzzzzzzzzzzzzzzzzzzzzzzzzzzzzzzzyyyyyyyyyyyyyyyyyyyyyyyyyyyyyyyyyyyyyyyyyyyyyyyyyyyyyyyyyyyyyyyyyyy
(PID.TID 0001.0001) //    242 +..+++++++++++++++zzzzzzzzzzzzzzzzzzzzzzzzzzzzzzzzzzyyyyyyyyyyyyyyyyyyyyyyyyyyyyyyyyyyyyyyyyyyyyyyyyyyyyyyyyyyyxxxxxxxxxxxxxxxxx
(PID.TID 0001.0001) //    241 +..+++++++++++++zzzzzzzzzzzzzzzzzzzzzzzzzzzzzyyyyyyyyyyyyyyyyyyyyyyyyyyyyyyyyyyyyyyyyxxxxxxxxxxxxxxxxxxxxxxxxxxxxxxxxxxxxxxxxxxx
(PID.TID 0001.0001) //    240 +..++++++++++++zzzzzzzzzzzzzzzzzzzzzzzzzyyyyyyyyyyyyyyyyyyyyyyyyyyyyyyyyxxxxxxxxxxxxxxxxxxxxxxxxxxxxxxxxxxxxxxxxxxxxxxxxxxxxxxxx
(PID.TID 0001.0001) //    239 +..++++++++++zzzzzzzzzzzzzzzzzzzzzzzyyyyyyyyyyyyyyyyyyyyyyyyyyyxxxxxxxxxxxxxxxxxxxxxxxxxxxxxxxxxxxxxxxxxxxxxxxxwwwwwwwwwwwwwwwww
(PID.TID 0001.0001) //    238 +..+++++++++zzzzzzzzzzzzzzzzzzzzzyyyyyyyyyyyyyyyyyyyyyyyyxxxxxxxxxxxxxxxxxxxxxxxxxxxxxxxxxwwwwwwwwwwwwwwwwwwwwwwwwwwwwwwwwwwwwww
(PID.TID 0001.0001) //    237 +..+++++++++zzzzzzzzzzzzzzzzzzzyyyyyyyyyyyyyyyyyyyyyxxxxxxxxxxxxxxxxxxxxxxxxxxxwwwwwwwwwwwwwwwwwwwwwwwwwwwwwwwwwwwwwwwwwwwwwwwww
(PID.TID 0001.0001) //    236 +..++++++++zzzzzzzzzzzzzzzzzzyyyyyyyyyyyyyyyyyyyxxxxxxxxxxxxxxxxxxxxxxxwwwwwwwwwwwwwwwwwwwwwwwwwwwwwwwwwwwwwwwwvvvvvvvvvvvvvvvvv
(PID.TID 0001.0001) //    235 +..+++++++zzzzzzzzzzzzzzzzzyyyyyyyyyyyyyyyyyxxxxxxxxxxxxxxxxxxxxxwwwwwwwwwwwwwwwwwwwwwwwwwwwwvvvvvvvvvvvvvvvvvvvvvvvvvvvvvvvvvvv
(PID.TID 0001.0001) //    234 +..+++++++zzzzzzzzzzzzzzzyyyyyyyyyyyyyyyyxxxxxxxxxxxxxxxxxxxwwwwwwwwwwwwwwwwwwwwwwwvvvvvvvvvvvvvvvvvvvvvvvvvvvvvvvvvvvvvvvvvvvvv
(PID.TID 0001.0001) //    233 +..++++++zzzzzzzzzzzzzzzyyyyyyyyyyyyyyyxxxxxxxxxxxxxxxxxwwwwwwwwwwwwwwwwwwwwvvvvvvvvvvvvvvvvvvvvvvvvvvvvvvvvvvvvuuuuuuuuuuuuuuuu
[...]
(PID.TID 0001.0001)     ;
(PID.TID 0001.0001) dyU =  /* dyU(:,1,:,1) ( units: m ) */
(PID.TID 0001.0001)   124 @  5.000000000000000E+03              /* I =  1:124 */
(PID.TID 0001.0001)     ;
(PID.TID 0001.0001) dyU =  /* dyU(1,:,1,:) ( units: m ) */
(PID.TID 0001.0001)   124 @  5.000000000000000E+03              /* J =  1:124 */
(PID.TID 0001.0001)     ;
(PID.TID 0001.0001) rA  =  /* rA (:,1,:,1) ( units: m^2 ) */
(PID.TID 0001.0001)   124 @  2.500000000000000E+07              /* I =  1:124 */
(PID.TID 0001.0001)     ;
(PID.TID 0001.0001) rA  =  /* rA (1,:,1,:) ( units: m^2 ) */
(PID.TID 0001.0001)   124 @  2.500000000000000E+07              /* J =  1:124 */
(PID.TID 0001.0001)     ;
(PID.TID 0001.0001) rAw =  /* rAw(:,1,:,1) ( units: m^2 ) */
(PID.TID 0001.0001)   124 @  2.500000000000000E+07              /* I =  1:124 */
(PID.TID 0001.0001)     ;
(PID.TID 0001.0001) rAw =  /* rAw(1,:,1,:) ( units: m^2 ) */
(PID.TID 0001.0001)   124 @  2.500000000000000E+07              /* J =  1:124 */
(PID.TID 0001.0001)     ;
(PID.TID 0001.0001) rAs =  /* rAs(:,1,:,1) ( units: m^2 ) */
(PID.TID 0001.0001)   124 @  2.500000000000000E+07              /* I =  1:124 */
(PID.TID 0001.0001)     ;
(PID.TID 0001.0001) rAs =  /* rAs(1,:,1,:) ( units: m^2 ) */
(PID.TID 0001.0001)   124 @  2.500000000000000E+07              /* J =  1:124 */
(PID.TID 0001.0001)     ;
(PID.TID 0001.0001) globalArea = /* Integrated horizontal Area (m^2) */
(PID.TID 0001.0001)                 1.512900000000000E+12
(PID.TID 0001.0001)     ;
(PID.TID 0001.0001) // =======================================================
(PID.TID 0001.0001) // End of Model config. summary
(PID.TID 0001.0001) // =======================================================
(PID.TID 0001.0001) 
(PID.TID 0001.0001) == Packages configuration : Check & print summary ==
(PID.TID 0001.0001) 
(PID.TID 0001.0001) // =======================================================
(PID.TID 0001.0001) // Check Model config. (CONFIG_CHECK):
(PID.TID 0001.0001) // CONFIG_CHECK : Normal End
(PID.TID 0001.0001) // =======================================================
(PID.TID 0001.0001) 
(PID.TID 0001.0001) Start initial hydrostatic pressure computation
(PID.TID 0001.0001) Pressure is predetermined for buoyancyRelation OCEANIC
(PID.TID 0001.0001) 
(PID.TID 0001.0001) // =======================================================
(PID.TID 0001.0001) // Model current state
(PID.TID 0001.0001) // =======================================================
(PID.TID 0001.0001) 
(PID.TID 0001.0001) SOLVE_FOR_PRESSURE: putPmEinXvector =    F
 cg2d: Sum(rhs),rhsMax =   0.00000000000000E+00  9.73592635192475E-05
 cg2d: Sum(rhs),rhsMax =   8.24229573481716E-13  1.15786318361866E-04
 cg2d: Sum(rhs),rhsMax =   3.06243919112603E-12  1.40965044910048E-04
 cg2d: Sum(rhs),rhsMax =   4.67537120130146E-12  1.66424792285971E-04
 cg2d: Sum(rhs),rhsMax =  -4.27036184191820E-12  1.93531974506246E-04
 cg2d: Sum(rhs),rhsMax =  -9.33653154788772E-12  2.21051268892998E-04
 cg2d: Sum(rhs),rhsMax =  -7.87281351222191E-12  2.48418964895491E-04
 cg2d: Sum(rhs),rhsMax =  -8.15703060652595E-12  2.75497529609692E-04
 cg2d: Sum(rhs),rhsMax =  -9.61719592851296E-12  3.02245044066557E-04
 cg2d: Sum(rhs),rhsMax =  -1.07185371689411E-11  3.28652306993531E-04
 cg2d: Sum(rhs),rhsMax =  -1.04414255019947E-11  3.54730592727831E-04
 cg2d: Sum(rhs),rhsMax =  -1.09139364212751E-11  3.80522708237529E-04
 cg2d: Sum(rhs),rhsMax =  -1.42303946404354E-11  4.06041333538053E-04
 cg2d: Sum(rhs),rhsMax =  -1.69091407542510E-11  4.31321752116575E-04
 cg2d: Sum(rhs),rhsMax =  -2.14672724041520E-11  4.56392661603088E-04
 cg2d: Sum(rhs),rhsMax =  -2.15560902461220E-11  4.81277303503287E-04
(PID.TID 0001.0001)      cg2d_init_res =   9.56895098468310E-01
(PID.TID 0001.0001)      cg2d_iters(min,last) =      -1     579
(PID.TID 0001.0001)      cg2d_last_res =   9.58646616995533E-08
 cg2d: Sum(rhs),rhsMax =  -2.31317187626701E-11  5.06007244526225E-04
 cg2d: Sum(rhs),rhsMax =  -2.71542788254919E-11  5.30609139322489E-04
 cg2d: Sum(rhs),rhsMax =  -3.46247475135897E-11  5.55079243039223E-04
 cg2d: Sum(rhs),rhsMax =  -3.46966899655854E-11  5.79477159384276E-04
 cg2d: Sum(rhs),rhsMax =  -3.68061137123732E-11  6.03774869058215E-04
 cg2d: Sum(rhs),rhsMax =  -3.90407706163387E-11  6.28024247329852E-04
 cg2d: Sum(rhs),rhsMax =  -4.37951896969935E-11  6.52216354240634E-04
 cg2d: Sum(rhs),rhsMax =  -4.69266847602512E-11  6.76356265774115E-04
 cg2d: Sum(rhs),rhsMax =  -5.08562081336095E-11  7.00492772370714E-04
 cg2d: Sum(rhs),rhsMax =  -5.45310463451187E-11  7.24602151638976E-04
 cg2d: Sum(rhs),rhsMax =  -6.48265885416777E-11  7.48693567570007E-04
 cg2d: Sum(rhs),rhsMax =  -6.85003165301623E-11  7.72781277207900E-04
 cg2d: Sum(rhs),rhsMax =  -7.59747820211487E-11  7.96893276050346E-04
 cg2d: Sum(rhs),rhsMax =  -8.07878208775037E-11  8.21011580226213E-04
 cg2d: Sum(rhs),rhsMax =  -8.40554292835805E-11  8.45142853744120E-04
 cg2d: Sum(rhs),rhsMax =  -8.81179573752888E-11  8.69293069792758E-04
(PID.TID 0001.0001)      cg2d_init_res =   4.85972645987831E-01
(PID.TID 0001.0001)      cg2d_iters(min,last) =      -1     578
(PID.TID 0001.0001)      cg2d_last_res =   9.53391462727624E-08
 cg2d: Sum(rhs),rhsMax =  -9.16191567057467E-11  8.93467581210172E-04
 cg2d: Sum(rhs),rhsMax =  -1.00958352788894E-10  9.17679467319540E-04
 cg2d: Sum(rhs),rhsMax =  -1.06801678612101E-10  9.41937152254738E-04
 cg2d: Sum(rhs),rhsMax =  -1.09753983679184E-10  9.66231248955807E-04
 cg2d: Sum(rhs),rhsMax =  -1.16084919454806E-10  9.90565162567292E-04
 cg2d: Sum(rhs),rhsMax =  -1.22273746683277E-10  1.01494191865982E-03
 cg2d: Sum(rhs),rhsMax =  -1.27549526496296E-10  1.03936419711467E-03
 cg2d: Sum(rhs),rhsMax =  -1.36337163780809E-10  1.06383436077117E-03
 cg2d: Sum(rhs),rhsMax =  -1.40556011274384E-10  1.08835448174433E-03
 cg2d: Sum(rhs),rhsMax =  -1.47149847862238E-10  1.11292636475254E-03
 cg2d: Sum(rhs),rhsMax =  -1.52180490431419E-10  1.13755156808102E-03
 cg2d: Sum(rhs),rhsMax =  -1.58467017286057E-10  1.16223142240936E-03
 cg2d: Sum(rhs),rhsMax =  -1.69169567243443E-10  1.18696704777579E-03
 cg2d: Sum(rhs),rhsMax =  -1.74717129652890E-10  1.21175936889824E-03
 cg2d: Sum(rhs),rhsMax =  -1.85130133445455E-10  1.23660912903874E-03
 cg2d: Sum(rhs),rhsMax =  -1.97136529322961E-10  1.26151690258250E-03
(PID.TID 0001.0001)      cg2d_init_res =   3.37729072211182E-01
(PID.TID 0001.0001)      cg2d_iters(min,last) =      -1     577
(PID.TID 0001.0001)      cg2d_last_res =   9.55987890802906E-08
 cg2d: Sum(rhs),rhsMax =  -2.03847605462215E-10  1.28648310647334E-03
 cg2d: Sum(rhs),rhsMax =  -2.09841033438352E-10  1.31150965628625E-03
 cg2d: Sum(rhs),rhsMax =  -2.18602025370274E-10  1.33659504701162E-03
 cg2d: Sum(rhs),rhsMax =  -2.27357688231677E-10  1.36173821821337E-03
 cg2d: Sum(rhs),rhsMax =  -2.34685160194203E-10  1.38693903477899E-03
 cg2d: Sum(rhs),rhsMax =  -2.44266828985928E-10  1.41219724792836E-03
 cg2d: Sum(rhs),rhsMax =  -2.54996024295906E-10  1.43751332423225E-03
 cg2d: Sum(rhs),rhsMax =  -2.68851607643228E-10  1.46288896801097E-03
 cg2d: Sum(rhs),rhsMax =  -2.82476264601428E-10  1.48832179118682E-03
 cg2d: Sum(rhs),rhsMax =  -2.94839708203654E-10  1.51381117199430E-03
 cg2d: Sum(rhs),rhsMax =  -3.07394998344535E-10  1.53935640307279E-03
 cg2d: Sum(rhs),rhsMax =  -3.22337712077569E-10  1.56495669737281E-03
 cg2d: Sum(rhs),rhsMax =  -3.34750893671298E-10  1.59061119208227E-03
 cg2d: Sum(rhs),rhsMax =  -3.49437812019460E-10  1.61631895257807E-03
 cg2d: Sum(rhs),rhsMax =  -3.62799568165428E-10  1.64207897613171E-03
 cg2d: Sum(rhs),rhsMax =  -3.79223763502523E-10  1.66789019536307E-03
(PID.TID 0001.0001)      cg2d_init_res =   2.64699860515211E-01
(PID.TID 0001.0001)      cg2d_iters(min,last) =      -1     576
(PID.TID 0001.0001)      cg2d_last_res =   9.73474817421977E-08
 cg2d: Sum(rhs),rhsMax =  -3.95260713048629E-10  1.69375148148205E-03
 cg2d: Sum(rhs),rhsMax =  -4.09656308875128E-10  1.71966164732652E-03
 cg2d: Sum(rhs),rhsMax =  -4.23128199145140E-10  1.74561945021870E-03
 cg2d: Sum(rhs),rhsMax =  -4.37783143070192E-10  1.77162359465369E-03
 cg2d: Sum(rhs),rhsMax =  -4.55603554883055E-10  1.79767273483295E-03
 cg2d: Sum(rhs),rhsMax =  -4.67057503783508E-10  1.82376547705769E-03
 cg2d: Sum(rhs),rhsMax =  -4.85563589336380E-10  1.84990038199163E-03
 cg2d: Sum(rhs),rhsMax =  -5.02215158348918E-10  1.87607596680493E-03
 cg2d: Sum(rhs),rhsMax =  -5.18603826549224E-10  1.90229070720674E-03
 cg2d: Sum(rhs),rhsMax =  -5.37259126076606E-10  1.92854303937828E-03
 cg2d: Sum(rhs),rhsMax =  -5.53889378807071E-10  1.95483136180995E-03
 cg2d: Sum(rhs),rhsMax =  -5.68434188608080E-10  1.98115403705281E-03
 cg2d: Sum(rhs),rhsMax =  -5.86403814395453E-10  2.00752587082928E-03
 cg2d: Sum(rhs),rhsMax =  -6.05485439564291E-10  2.03394073657628E-03
 cg2d: Sum(rhs),rhsMax =  -6.24304163920897E-10  2.06038639718327E-03
 cg2d: Sum(rhs),rhsMax =  -6.43879616291088E-10  2.08686110612999E-03
(PID.TID 0001.0001)      cg2d_init_res =   2.19609124255652E-01
(PID.TID 0001.0001)      cg2d_iters(min,last) =      -1     576
(PID.TID 0001.0001)      cg2d_last_res =   9.22917252430144E-08
 cg2d: Sum(rhs),rhsMax =  -6.60815402397930E-10  2.11336308853065E-03
 cg2d: Sum(rhs),rhsMax =  -6.82476297697576E-10  2.13989054247678E-03
 cg2d: Sum(rhs),rhsMax =  -7.00300262224118E-10  2.16644164032873E-03
 cg2d: Sum(rhs),rhsMax =  -7.23385795708964E-10  2.19301452996064E-03
 cg2d: Sum(rhs),rhsMax =  -7.40637773333219E-10  2.21960733595846E-03
 cg2d: Sum(rhs),rhsMax =  -7.67482077890236E-10  2.24621816062786E-03
 cg2d: Sum(rhs),rhsMax =  -7.97612642600143E-10  2.27284508570010E-03
 cg2d: Sum(rhs),rhsMax =  -8.24744716965142E-10  2.29948766244473E-03
 cg2d: Sum(rhs),rhsMax =  -8.54623039003855E-10  2.32618267403502E-03
 cg2d: Sum(rhs),rhsMax =  -8.83538575635612E-10  2.35288966769175E-03
 cg2d: Sum(rhs),rhsMax =  -9.12795172780534E-10  2.37960666920079E-03
 cg2d: Sum(rhs),rhsMax =  -9.45075129266115E-10  2.40633168819214E-03
 cg2d: Sum(rhs),rhsMax =  -9.74171854295491E-10  2.43306271922269E-03
 cg2d: Sum(rhs),rhsMax =  -1.00896713206566E-09  2.45979774254615E-03
 cg2d: Sum(rhs),rhsMax =  -1.04470032624704E-09  2.48653472508966E-03
 cg2d: Sum(rhs),rhsMax =  -1.08178710434004E-09  2.51327162123251E-03
(PID.TID 0001.0001)      cg2d_init_res =   1.87716469922485E-01
(PID.TID 0001.0001)      cg2d_iters(min,last) =      -1     575
(PID.TID 0001.0001)      cg2d_last_res =   9.61708341535157E-08
 cg2d: Sum(rhs),rhsMax =  -1.11730713570068E-09  2.54000637369982E-03
 cg2d: Sum(rhs),rhsMax =  -1.15448983706301E-09  2.56676770177390E-03
 cg2d: Sum(rhs),rhsMax =  -1.19643317475493E-09  2.59354702156961E-03
 cg2d: Sum(rhs),rhsMax =  -1.23629462223107E-09  2.62031989153430E-03
(PID.TID 0001.0001) %CHECKPOINT       100 ckptA
(PID.TID 0001.0001)   Seconds in section "ALL                    [THE_MODEL_MAIN]":
(PID.TID 0001.0001)           User time:   538.891232402995
(PID.TID 0001.0001)         System time:  0.000000000000000E+000
(PID.TID 0001.0001)     Wall clock time:   599.426105022430
(PID.TID 0001.0001)          No. starts:           1
(PID.TID 0001.0001)           No. stops:           1
(PID.TID 0001.0001)   Seconds in section "INITIALISE_FIXED       [THE_MODEL_MAIN]":
(PID.TID 0001.0001)           User time:  0.169515999034047
(PID.TID 0001.0001)         System time:  0.000000000000000E+000
(PID.TID 0001.0001)     Wall clock time:  0.228106021881104
(PID.TID 0001.0001)          No. starts:           1
(PID.TID 0001.0001)           No. stops:           1
(PID.TID 0001.0001)   Seconds in section "THE_MAIN_LOOP          [THE_MODEL_MAIN]":
(PID.TID 0001.0001)           User time:   538.721688404679
(PID.TID 0001.0001)         System time:  0.000000000000000E+000
(PID.TID 0001.0001)     Wall clock time:   599.197956085205
(PID.TID 0001.0001)          No. starts:           1
(PID.TID 0001.0001)           No. stops:           1
(PID.TID 0001.0001)   Seconds in section "INITIALISE_VARIA    [THE_MAIN_LOOP]":
(PID.TID 0001.0001)           User time:  0.109636008739471
(PID.TID 0001.0001)         System time:  0.000000000000000E+000
(PID.TID 0001.0001)     Wall clock time:  0.118175983428955
(PID.TID 0001.0001)          No. starts:           1
(PID.TID 0001.0001)           No. stops:           1
(PID.TID 0001.0001)   Seconds in section "MAIN LOOP           [THE_MAIN_LOOP]":
(PID.TID 0001.0001)           User time:   538.611968368292
(PID.TID 0001.0001)         System time:  0.000000000000000E+000
(PID.TID 0001.0001)     Wall clock time:   599.079743862152
(PID.TID 0001.0001)          No. starts:           1
(PID.TID 0001.0001)           No. stops:           1
(PID.TID 0001.0001)   Seconds in section "MAIN_DO_LOOP        [THE_MAIN_LOOP]":
(PID.TID 0001.0001)           User time:   538.611049473286
(PID.TID 0001.0001)         System time:  0.000000000000000E+000
(PID.TID 0001.0001)     Wall clock time:   599.078769683838
(PID.TID 0001.0001)          No. starts:         100
(PID.TID 0001.0001)           No. stops:         100
(PID.TID 0001.0001)   Seconds in section "FORWARD_STEP        [MAIN_DO_LOOP]":
(PID.TID 0001.0001)           User time:   538.609192788601
(PID.TID 0001.0001)         System time:  0.000000000000000E+000
(PID.TID 0001.0001)     Wall clock time:   599.076802253723
(PID.TID 0001.0001)          No. starts:         100
(PID.TID 0001.0001)           No. stops:         100
(PID.TID 0001.0001)   Seconds in section "LOAD_FIELDS_DRIVER  [FORWARD_STEP]":
(PID.TID 0001.0001)           User time:  2.555966377258301E-003
(PID.TID 0001.0001)         System time:  0.000000000000000E+000
(PID.TID 0001.0001)     Wall clock time:  2.945661544799805E-003
(PID.TID 0001.0001)          No. starts:         100
(PID.TID 0001.0001)           No. stops:         100
(PID.TID 0001.0001)   Seconds in section "EXTERNAL_FLDS_LOAD [LOAD_FLDS_DRIVER]":
(PID.TID 0001.0001)           User time:  8.139312267303467E-004
(PID.TID 0001.0001)         System time:  0.000000000000000E+000
(PID.TID 0001.0001)     Wall clock time:  9.758472442626953E-004
(PID.TID 0001.0001)          No. starts:         100
(PID.TID 0001.0001)           No. stops:         100
(PID.TID 0001.0001)   Seconds in section "DO_ATMOSPHERIC_PHYS [FORWARD_STEP]":
(PID.TID 0001.0001)           User time:  9.229481220245361E-004
(PID.TID 0001.0001)         System time:  0.000000000000000E+000
(PID.TID 0001.0001)     Wall clock time:  9.737014770507812E-004
(PID.TID 0001.0001)          No. starts:         100
(PID.TID 0001.0001)           No. stops:         100
(PID.TID 0001.0001)   Seconds in section "DO_OCEANIC_PHYS     [FORWARD_STEP]":
(PID.TID 0001.0001)           User time:  9.009465575218201E-002
(PID.TID 0001.0001)         System time:  0.000000000000000E+000
(PID.TID 0001.0001)     Wall clock time:  9.380412101745605E-002
(PID.TID 0001.0001)          No. starts:         100
(PID.TID 0001.0001)           No. stops:         100
(PID.TID 0001.0001)   Seconds in section "THERMODYNAMICS      [FORWARD_STEP]":
(PID.TID 0001.0001)           User time:   2.96625235676765
(PID.TID 0001.0001)         System time:  0.000000000000000E+000
(PID.TID 0001.0001)     Wall clock time:   3.36374044418335
(PID.TID 0001.0001)          No. starts:         100
(PID.TID 0001.0001)           No. stops:         100
(PID.TID 0001.0001)   Seconds in section "DYNAMICS            [FORWARD_STEP]":
(PID.TID 0001.0001)           User time:  0.499654442071915
(PID.TID 0001.0001)         System time:  0.000000000000000E+000
(PID.TID 0001.0001)     Wall clock time:  0.512161731719971
(PID.TID 0001.0001)          No. starts:         100
(PID.TID 0001.0001)           No. stops:         100
(PID.TID 0001.0001)   Seconds in section "SOLVE_FOR_PRESSURE  [FORWARD_STEP]":
(PID.TID 0001.0001)           User time:   493.538550555706
(PID.TID 0001.0001)         System time:  0.000000000000000E+000
(PID.TID 0001.0001)     Wall clock time:   548.802533388138
(PID.TID 0001.0001)          No. starts:         100
(PID.TID 0001.0001)           No. stops:         100
(PID.TID 0001.0001)   Seconds in section "MOM_CORRECTION_STEP [FORWARD_STEP]":
(PID.TID 0001.0001)           User time:  3.277286887168884E-002
(PID.TID 0001.0001)         System time:  0.000000000000000E+000
(PID.TID 0001.0001)     Wall clock time:  3.514599800109863E-002
(PID.TID 0001.0001)          No. starts:         100
(PID.TID 0001.0001)           No. stops:         100
(PID.TID 0001.0001)   Seconds in section "INTEGR_CONTINUITY   [FORWARD_STEP]":
(PID.TID 0001.0001)           User time:  2.168616652488708E-002
(PID.TID 0001.0001)         System time:  0.000000000000000E+000
(PID.TID 0001.0001)     Wall clock time:  2.289247512817383E-002
(PID.TID 0001.0001)          No. starts:         100
(PID.TID 0001.0001)           No. stops:         100
(PID.TID 0001.0001)   Seconds in section "TRC_CORRECTION_STEP [FORWARD_STEP]":
(PID.TID 0001.0001)           User time:  1.041650772094727E-003
(PID.TID 0001.0001)         System time:  0.000000000000000E+000
(PID.TID 0001.0001)     Wall clock time:  1.012325286865234E-003
(PID.TID 0001.0001)          No. starts:         100
(PID.TID 0001.0001)           No. stops:         100
(PID.TID 0001.0001)   Seconds in section "BLOCKING_EXCHANGES  [FORWARD_STEP]":
(PID.TID 0001.0001)           User time:   29.9463870525360
(PID.TID 0001.0001)         System time:  0.000000000000000E+000
(PID.TID 0001.0001)     Wall clock time:   33.5179083347321
(PID.TID 0001.0001)          No. starts:         100
(PID.TID 0001.0001)           No. stops:         100
(PID.TID 0001.0001)   Seconds in section "MONITOR             [FORWARD_STEP]":
(PID.TID 0001.0001)           User time:   11.3487541079521
(PID.TID 0001.0001)         System time:  0.000000000000000E+000
(PID.TID 0001.0001)     Wall clock time:   12.5443711280823
(PID.TID 0001.0001)          No. starts:         100
(PID.TID 0001.0001)           No. stops:         100
(PID.TID 0001.0001)   Seconds in section "DO_THE_MODEL_IO     [FORWARD_STEP]":
(PID.TID 0001.0001)           User time:  6.188175082206726E-002
(PID.TID 0001.0001)         System time:  0.000000000000000E+000
(PID.TID 0001.0001)     Wall clock time:  6.987142562866211E-002
(PID.TID 0001.0001)          No. starts:         100
(PID.TID 0001.0001)           No. stops:         100
(PID.TID 0001.0001)   Seconds in section "DO_WRITE_PICKUP     [FORWARD_STEP]":
(PID.TID 0001.0001)           User time:  8.337813615798950E-002
(PID.TID 0001.0001)         System time:  0.000000000000000E+000
(PID.TID 0001.0001)     Wall clock time:  9.524798393249512E-002
(PID.TID 0001.0001)          No. starts:         100
(PID.TID 0001.0001)           No. stops:         100
(PID.TID 0001.0001) // ======================================================
(PID.TID 0001.0001) // Tile <-> Tile communication statistics
(PID.TID 0001.0001) // ======================================================
(PID.TID 0001.0001) // o Tile number: 000003
(PID.TID 0001.0001) //         No. X exchanges =              0
(PID.TID 0001.0001) //            Max. X spins =              0
(PID.TID 0001.0001) //            Min. X spins =     1000000000
(PID.TID 0001.0001) //          Total. X spins =              0
(PID.TID 0001.0001) //            Avg. X spins =       0.00E+00
(PID.TID 0001.0001) //         No. Y exchanges =              0
(PID.TID 0001.0001) //            Max. Y spins =              0
(PID.TID 0001.0001) //            Min. Y spins =     1000000000
(PID.TID 0001.0001) //          Total. Y spins =              0
(PID.TID 0001.0001) //            Avg. Y spins =       0.00E+00
(PID.TID 0001.0001) // o Thread number: 000001
(PID.TID 0001.0001) //            No. barriers =         346620
(PID.TID 0001.0001) //      Max. barrier spins =              1
(PID.TID 0001.0001) //      Min. barrier spins =              1
(PID.TID 0001.0001) //     Total barrier spins =         346620
(PID.TID 0001.0001) //      Avg. barrier spins =       1.00E+00
PROGRAM MAIN: Execution ended Normally
