(PID.TID 0000.0001) 
(PID.TID 0000.0001) // ======================================================
(PID.TID 0000.0001) //                      MITgcm UV
(PID.TID 0000.0001) //                      =========
(PID.TID 0000.0001) // ======================================================
(PID.TID 0000.0001) // execution environment starting up...
(PID.TID 0000.0001) 
(PID.TID 0000.0001) // MITgcmUV version:  checkpoint67v
(PID.TID 0000.0001) // Build user:        eavesr
(PID.TID 0000.0001) // Build host:        atmlxint3
(PID.TID 0000.0001) // Build date:        Thu 25 Feb 14:25:42 GMT 2021
(PID.TID 0000.0001) 
(PID.TID 0000.0001) // =======================================================
(PID.TID 0000.0001) // Execution Environment parameter file "eedata"
(PID.TID 0000.0001) // =======================================================
(PID.TID 0000.0001) ># Example "eedata" file
(PID.TID 0000.0001) ># Lines beginning "#" are comments
(PID.TID 0000.0001) >#  nTx      :: No. threads per process in X
(PID.TID 0000.0001) >#  nTy      :: No. threads per process in Y
(PID.TID 0000.0001) ># debugMode :: print debug msg (sequence of S/R calls)
(PID.TID 0000.0001) > &EEPARMS
(PID.TID 0000.0001) > nTx=1,
(PID.TID 0000.0001) > nTy=1,
(PID.TID 0000.0001) > &
(PID.TID 0000.0001) ># Note: Some systems use & as the namelist terminator (as shown here).
(PID.TID 0000.0001) >#       Other systems use a / character.
(PID.TID 0000.0001) 
(PID.TID 0000.0001) // =======================================================
(PID.TID 0000.0001) // Computational Grid Specification ( see files "SIZE.h" )
(PID.TID 0000.0001) //                                  ( and "eedata"       )
(PID.TID 0000.0001) // =======================================================
(PID.TID 0000.0001)      nPx =    2 ; /* No. processes in X */
(PID.TID 0000.0001)      nPy =    2 ; /* No. processes in Y */
(PID.TID 0000.0001)      nSx =    1 ; /* No. tiles in X per process */
(PID.TID 0000.0001)      nSy =    1 ; /* No. tiles in Y per process */
(PID.TID 0000.0001)      sNx =  124 ; /* Tile size in X */
(PID.TID 0000.0001)      sNy =  124 ; /* Tile size in Y */
(PID.TID 0000.0001)      OLx =    2 ; /* Tile overlap distance in X */
(PID.TID 0000.0001)      OLy =    2 ; /* Tile overlap distance in Y */
(PID.TID 0000.0001)      nTx =    1 ; /* No. threads in X per process */
(PID.TID 0000.0001)      nTy =    1 ; /* No. threads in Y per process */
(PID.TID 0000.0001)       Nr =    1 ; /* No. levels in the vertical   */
(PID.TID 0000.0001)       Nx =  248 ; /* Total domain size in X ( = nPx*nSx*sNx ) */
(PID.TID 0000.0001)       Ny =  248 ; /* Total domain size in Y ( = nPy*nSy*sNy ) */
(PID.TID 0000.0001)   nTiles =    1 ; /* Total no. tiles per process ( = nSx*nSy ) */
(PID.TID 0000.0001)   nProcs =    4 ; /* Total no. processes ( = nPx*nPy ) */
(PID.TID 0000.0001) nThreads =    1 ; /* Total no. threads per process ( = nTx*nTy ) */
(PID.TID 0000.0001) usingMPI =    T ; /* Flag used to control whether MPI is in use */
(PID.TID 0000.0001)                   /*  note: To execute a program with MPI calls */
(PID.TID 0000.0001)                   /*  it must be launched appropriately e.g     */
(PID.TID 0000.0001)                   /*  "mpirun -np 64 ......"                    */
(PID.TID 0000.0001) useCoupler=   F ; /* Flag used to control communications with   */
(PID.TID 0000.0001)                   /*  other model components, through a coupler */
(PID.TID 0000.0001) useNest2W_parent =    F ;/* Control 2-W Nesting comm */
(PID.TID 0000.0001) useNest2W_child  =    F ;/* Control 2-W Nesting comm */
(PID.TID 0000.0001) debugMode =    F ; /* print debug msg. (sequence of S/R calls)  */
(PID.TID 0000.0001) printMapIncludesZeros=    F ; /* print zeros in Std.Output maps */
(PID.TID 0000.0001) maxLengthPrt1D=   65 /* maxLength of 1D array printed to StdOut */
(PID.TID 0000.0001) 
(PID.TID 0000.0001) ======= Starting MPI parallel Run =========
(PID.TID 0000.0001)  My Processor Name (len:  9 ) = atmlxint3
(PID.TID 0000.0001)  Located at (  0,  0) on processor grid (0:  1,0:  1)
(PID.TID 0000.0001)  Origin at  (     1,     1) on global grid (1:   248,1:   248)
(PID.TID 0000.0001)  North neighbor = processor 0001
(PID.TID 0000.0001)  South neighbor = processor 0001
(PID.TID 0000.0001)   East neighbor = processor 0002
(PID.TID 0000.0001)   West neighbor = processor 0002
(PID.TID 0000.0001) // ======================================================
(PID.TID 0000.0001) // Mapping of tiles to threads
(PID.TID 0000.0001) // ======================================================
(PID.TID 0000.0001) // -o- Thread   1, tiles (   1:   1,   1:   1)
(PID.TID 0000.0001) 
(PID.TID 0000.0001) // ======================================================
(PID.TID 0000.0001) // Tile <-> Tile connectvity table
(PID.TID 0000.0001) // ======================================================
(PID.TID 0000.0001) // Tile number: 000001 (process no. = 000000)
(PID.TID 0000.0001) //        WEST: Tile = 000002, Process = 000002, Comm = messages
(PID.TID 0000.0001) //                bi = 000001, bj = 000001
(PID.TID 0000.0001) //        EAST: Tile = 000002, Process = 000002, Comm = messages
(PID.TID 0000.0001) //                bi = 000001, bj = 000001
(PID.TID 0000.0001) //       SOUTH: Tile = 000003, Process = 000001, Comm = messages
(PID.TID 0000.0001) //                bi = 000001, bj = 000001
(PID.TID 0000.0001) //       NORTH: Tile = 000003, Process = 000001, Comm = messages
(PID.TID 0000.0001) //                bi = 000001, bj = 000001
(PID.TID 0000.0001) 
(PID.TID 0000.0001)  INI_PARMS: opening model parameter file "data"
(PID.TID 0000.0001)  OPEN_COPY_DATA_FILE: opening file data
(PID.TID 0000.0001) // =======================================================
(PID.TID 0000.0001) // Parameter file "data"
(PID.TID 0000.0001) // =======================================================
(PID.TID 0000.0001) ># Model parameters
(PID.TID 0000.0001) ># Continuous equation parameters
(PID.TID 0000.0001) > &PARM01
(PID.TID 0000.0001) > viscAh=4.E2,
(PID.TID 0000.0001) > f0=0.7E-4,
(PID.TID 0000.0001) > beta=2.E-11,
(PID.TID 0000.0001) > rhoConst=1027.,
(PID.TID 0000.0001) > gBaro=9.81,
(PID.TID 0000.0001) > rigidLid=.FALSE.,
(PID.TID 0000.0001) > implicitFreeSurface=.TRUE.,
(PID.TID 0000.0001) ># momAdvection=.FALSE.,
(PID.TID 0000.0001) > tempStepping=.FALSE.,
(PID.TID 0000.0001) > saltStepping=.FALSE.,
(PID.TID 0000.0001) > useSingleCpuIO=.TRUE.,
(PID.TID 0000.0001) > hFacMin=0.1,
(PID.TID 0000.0001) > &
(PID.TID 0000.0001) >
(PID.TID 0000.0001) ># Elliptic solver parameters
(PID.TID 0000.0001) > &PARM02
(PID.TID 0000.0001) > cg2dTargetResidual=1.E-7,
(PID.TID 0000.0001) > cg2dMaxIters=1000,
(PID.TID 0000.0001) > &
(PID.TID 0000.0001) >
(PID.TID 0000.0001) ># Time stepping parameters
(PID.TID 0000.0001) > &PARM03
(PID.TID 0000.0001) > nIter0=0,
(PID.TID 0000.0001) > nTimeSteps=100,
(PID.TID 0000.0001) > deltaT=5400.0,
(PID.TID 0000.0001) > pChkptFreq=31104000.0,
(PID.TID 0000.0001) > chkptFreq=25920000.0,
(PID.TID 0000.0001) > dumpFreq=864000.0,
(PID.TID 0000.0001) > monitorFreq=86400.,
(PID.TID 0000.0001) > monitorSelect=2,
(PID.TID 0000.0001) >#-for longer run (3.0 yr):
(PID.TID 0000.0001) ># nTimeSteps=77760,
(PID.TID 0000.0001) ># monitorFreq=864000.,
(PID.TID 0000.0001) > &
(PID.TID 0000.0001) >
(PID.TID 0000.0001) ># Gridding parameters
(PID.TID 0000.0001) > &PARM04
(PID.TID 0000.0001) > usingCartesianGrid=.TRUE.,
(PID.TID 0000.0001) > delX=248*5.E3,
(PID.TID 0000.0001) > delY=248*5.E3,
(PID.TID 0000.0001) > xgOrigin=-5.E3,
(PID.TID 0000.0001) > ygOrigin=-5.E3,
(PID.TID 0000.0001) > delR=5000.,
(PID.TID 0000.0001) > &
(PID.TID 0000.0001) >
(PID.TID 0000.0001) ># Input datasets
(PID.TID 0000.0001) > &PARM05
(PID.TID 0000.0001) > bathyFile='bathy.bin'
(PID.TID 0000.0001) > zonalWindFile='wind.bin',
(PID.TID 0000.0001) >#zonalWindFile='windx_siny.bin',
(PID.TID 0000.0001) > meridWindFile=,
(PID.TID 0000.0001) > &
(PID.TID 0000.0001) 
(PID.TID 0000.0001)  INI_PARMS ; starts to read PARM01
(PID.TID 0000.0001)  INI_PARMS ; read PARM01 : OK
(PID.TID 0000.0001)  INI_PARMS ; starts to read PARM02
(PID.TID 0000.0001)  INI_PARMS ; read PARM02 : OK
(PID.TID 0000.0001)  INI_PARMS ; starts to read PARM03
(PID.TID 0000.0001)  INI_PARMS ; read PARM03 : OK
(PID.TID 0000.0001)  INI_PARMS ; starts to read PARM04
(PID.TID 0000.0001)  INI_PARMS ; read PARM04 : OK
(PID.TID 0000.0001)  INI_PARMS ; starts to read PARM05
(PID.TID 0000.0001)  INI_PARMS ; read PARM05 : OK
(PID.TID 0000.0001)  INI_PARMS: finished reading file "data"
(PID.TID 0000.0001)  PACKAGES_BOOT: opening data.pkg
(PID.TID 0000.0001)  OPEN_COPY_DATA_FILE: opening file data.pkg
(PID.TID 0000.0001) // =======================================================
(PID.TID 0000.0001) // Parameter file "data.pkg"
(PID.TID 0000.0001) // =======================================================
(PID.TID 0000.0001) ># Packages
(PID.TID 0000.0001) > &PACKAGES
(PID.TID 0000.0001) > &
(PID.TID 0000.0001) 
(PID.TID 0000.0001)  PACKAGES_BOOT: finished reading data.pkg
(PID.TID 0000.0001)  PACKAGES_BOOT: On/Off package Summary
 --------  pkgs with a standard "usePKG" On/Off switch in "data.pkg":  --------
 -------- pkgs without standard "usePKG" On/Off switch in "data.pkg":  --------
 pkg/generic_advdiff      compiled but not used ( useGAD                   = F )
 pkg/mom_common           compiled   and   used ( momStepping              = T )
 pkg/mom_vecinv           compiled but not used ( +vectorInvariantMomentum = F )
 pkg/mom_fluxform         compiled   and   used ( & not vectorInvariantMom = T )
 pkg/monitor              compiled   and   used ( monitorFreq > 0.         = T )
 pkg/debug                compiled but not used ( debugMode                = F )
 pkg/rw                   compiled   and   used
 pkg/mdsio                compiled   and   used
(PID.TID 0000.0001)  PACKAGES_BOOT: End of package Summary
(PID.TID 0000.0001) 
(PID.TID 0000.0001) SET_PARMS: done
(PID.TID 0000.0001) Enter INI_VERTICAL_GRID: setInterFDr=    T ; setCenterDr=    F
(PID.TID 0000.0001) %MON XC_max                       =   1.2325000000000E+06
(PID.TID 0000.0001) %MON XC_min                       =  -2.5000000000000E+03
(PID.TID 0000.0001) %MON XC_mean                      =   6.1500000000000E+05
(PID.TID 0000.0001) %MON XC_sd                        =   3.5795425685414E+05
(PID.TID 0000.0001) %MON XG_max                       =   1.2300000000000E+06
(PID.TID 0000.0001) %MON XG_min                       =  -5.0000000000000E+03
(PID.TID 0000.0001) %MON XG_mean                      =   6.1250000000000E+05
(PID.TID 0000.0001) %MON XG_sd                        =   3.5795425685414E+05
(PID.TID 0000.0001) %MON DXC_max                      =   5.0000000000000E+03
(PID.TID 0000.0001) %MON DXC_min                      =   5.0000000000000E+03
(PID.TID 0000.0001) %MON DXC_mean                     =   5.0000000000000E+03
(PID.TID 0000.0001) %MON DXC_sd                       =   9.0949470177293E-13
(PID.TID 0000.0001) %MON DXF_max                      =   5.0000000000000E+03
(PID.TID 0000.0001) %MON DXF_min                      =   5.0000000000000E+03
(PID.TID 0000.0001) %MON DXF_mean                     =   5.0000000000000E+03
(PID.TID 0000.0001) %MON DXF_sd                       =   9.0949470177293E-13
(PID.TID 0000.0001) %MON DXG_max                      =   5.0000000000000E+03
(PID.TID 0000.0001) %MON DXG_min                      =   5.0000000000000E+03
(PID.TID 0000.0001) %MON DXG_mean                     =   5.0000000000000E+03
(PID.TID 0000.0001) %MON DXG_sd                       =   9.0949470177293E-13
(PID.TID 0000.0001) %MON DXV_max                      =   5.0000000000000E+03
(PID.TID 0000.0001) %MON DXV_min                      =   5.0000000000000E+03
(PID.TID 0000.0001) %MON DXV_mean                     =   5.0000000000000E+03
(PID.TID 0000.0001) %MON DXV_sd                       =   9.0949470177293E-13
(PID.TID 0000.0001) %MON YC_max                       =   1.2325000000000E+06
(PID.TID 0000.0001) %MON YC_min                       =  -2.5000000000000E+03
(PID.TID 0000.0001) %MON YC_mean                      =   6.1500000000000E+05
(PID.TID 0000.0001) %MON YC_sd                        =   3.5795425685414E+05
(PID.TID 0000.0001) %MON YG_max                       =   1.2300000000000E+06
(PID.TID 0000.0001) %MON YG_min                       =  -5.0000000000000E+03
(PID.TID 0000.0001) %MON YG_mean                      =   6.1250000000000E+05
(PID.TID 0000.0001) %MON YG_sd                        =   3.5795425685414E+05
(PID.TID 0000.0001) %MON DYC_max                      =   5.0000000000000E+03
(PID.TID 0000.0001) %MON DYC_min                      =   5.0000000000000E+03
(PID.TID 0000.0001) %MON DYC_mean                     =   5.0000000000000E+03
(PID.TID 0000.0001) %MON DYC_sd                       =   9.0949470177293E-13
(PID.TID 0000.0001) %MON DYF_max                      =   5.0000000000000E+03
(PID.TID 0000.0001) %MON DYF_min                      =   5.0000000000000E+03
(PID.TID 0000.0001) %MON DYF_mean                     =   5.0000000000000E+03
(PID.TID 0000.0001) %MON DYF_sd                       =   9.0949470177293E-13
(PID.TID 0000.0001) %MON DYG_max                      =   5.0000000000000E+03
(PID.TID 0000.0001) %MON DYG_min                      =   5.0000000000000E+03
(PID.TID 0000.0001) %MON DYG_mean                     =   5.0000000000000E+03
(PID.TID 0000.0001) %MON DYG_sd                       =   9.0949470177293E-13
(PID.TID 0000.0001) %MON DYU_max                      =   5.0000000000000E+03
(PID.TID 0000.0001) %MON DYU_min                      =   5.0000000000000E+03
(PID.TID 0000.0001) %MON DYU_mean                     =   5.0000000000000E+03
(PID.TID 0000.0001) %MON DYU_sd                       =   9.0949470177293E-13
(PID.TID 0000.0001) %MON RA_max                       =   2.5000000000000E+07
(PID.TID 0000.0001) %MON RA_min                       =   2.5000000000000E+07
(PID.TID 0000.0001) %MON RA_mean                      =   2.5000000000000E+07
(PID.TID 0000.0001) %MON RA_sd                        =   3.7252902984619E-09
(PID.TID 0000.0001) %MON RAW_max                      =   2.5000000000000E+07
(PID.TID 0000.0001) %MON RAW_min                      =   2.5000000000000E+07
(PID.TID 0000.0001) %MON RAW_mean                     =   2.5000000000000E+07
(PID.TID 0000.0001) %MON RAW_sd                       =   3.7252902984619E-09
(PID.TID 0000.0001) %MON RAS_max                      =   2.5000000000000E+07
(PID.TID 0000.0001) %MON RAS_min                      =   2.5000000000000E+07
(PID.TID 0000.0001) %MON RAS_mean                     =   2.5000000000000E+07
(PID.TID 0000.0001) %MON RAS_sd                       =   3.7252902984619E-09
(PID.TID 0000.0001) %MON RAZ_max                      =   2.5000000000000E+07
(PID.TID 0000.0001) %MON RAZ_min                      =   2.5000000000000E+07
(PID.TID 0000.0001) %MON RAZ_mean                     =   2.5000000000000E+07
(PID.TID 0000.0001) %MON RAZ_sd                       =   3.7252902984619E-09
(PID.TID 0000.0001) %MON AngleCS_max                  =   1.0000000000000E+00
(PID.TID 0000.0001) %MON AngleCS_min                  =   1.0000000000000E+00
(PID.TID 0000.0001) %MON AngleCS_mean                 =   1.0000000000000E+00
(PID.TID 0000.0001) %MON AngleCS_sd                   =   0.0000000000000E+00
(PID.TID 0000.0001) %MON AngleSN_max                  =   0.0000000000000E+00
(PID.TID 0000.0001) %MON AngleSN_min                  =   0.0000000000000E+00
(PID.TID 0000.0001) %MON AngleSN_mean                 =   0.0000000000000E+00
(PID.TID 0000.0001) %MON AngleSN_sd                   =   0.0000000000000E+00
(PID.TID 0000.0001)  MDS_READ_FIELD: opening global file: bathy.bin
(PID.TID 0000.0001) // =======================================================
(PID.TID 0000.0001) // Field Model R_low (ini_masks_etc)
(PID.TID 0000.0001) // CMIN =         -4.999819335937500E+03
(PID.TID 0000.0001) // CMAX =         -4.500020019531250E+03
(PID.TID 0000.0001) // CINT =          1.851108579282407E+01
(PID.TID 0000.0001) // SYMBOLS (CMIN->CMAX): -abcdefghijklmnopqrstuvwxyz+
(PID.TID 0000.0001) //                  0.0: .
(PID.TID 0000.0001) // RANGE I (Lo:Hi:Step):(    -1:   126:     1)
(PID.TID 0000.0001) // RANGE J (Lo:Hi:Step):(   126:    -1:    -1)
(PID.TID 0000.0001) // RANGE K (Lo:Hi:Step):(   1:   1:   1)
(PID.TID 0000.0001) // =======================================================
(PID.TID 0000.0001) K =   1
(PID.TID 0000.0001) //                I=8       I=18      I=28      I=38      I=48      I=58      I=68      I=78      I=88      I=98      I=108     I=118
(PID.TID 0000.0001) // |--J--|101234567|901234567|901234567|901234567|901234567|901234567|901234567|901234567|901234567|901234567|901234567|901234567|90123456
(PID.TID 0000.0001) //    126 a..aaabbbcccdddeeefffggghhhiiijjjjkkklllmmmnnnnoooppppqqqqrrrrssssttttuuuuuvvvvvwwwwwxxxxxxxyyyyyyyyzzzzzzzzzzz+++++++++++++++++
(PID.TID 0000.0001) //    125 a..aaabbbcccdddeeefffggghhhiiijjjjkkklllmmmnnnnoooppppqqqqrrrrssssttttuuuuuvvvvvwwwwwxxxxxxxyyyyyyyyzzzzzzzzzzz+++++++++++++++++
(PID.TID 0000.0001) //    124 a..aaabbbcccdddeeefffggghhhiiijjjjkkklllmmmnnnnoooppppqqqqrrrrssssttttuuuuuvvvvvwwwwwxxxxxxxyyyyyyyyzzzzzzzzzzz+++++++++++++++++
(PID.TID 0000.0001) //    123 a..aaabbbcccdddeeefffggghhhiiijjjjkkklllmmmnnnnoooppppqqqqrrrrssssttttuuuuuvvvvvwwwwwxxxxxxxyyyyyyyyzzzzzzzzzzz+++++++++++++++++
(PID.TID 0000.0001) //    122 a..aaabbbcccdddeeefffggghhhiiijjjjkkklllmmmnnnnoooppppqqqqrrrrssssttttuuuuuvvvvvwwwwwxxxxxxxyyyyyyyyzzzzzzzzzzz+++++++++++++++++
(PID.TID 0000.0001) //    121 a..aaabbbcccdddeeefffggghhhiiijjjjkkklllmmmnnnnoooppppqqqqrrrrssssttttuuuuuvvvvvwwwwwxxxxxxxyyyyyyyyzzzzzzzzzzz+++++++++++++++++
(PID.TID 0000.0001) //    120 a..aaabbbcccdddeeefffggghhhiiijjjjkkklllmmmnnnnoooppppqqqqrrrrssssttttuuuuuvvvvvwwwwwwxxxxxxyyyyyyyyzzzzzzzzzzz+++++++++++++++++
(PID.TID 0000.0001) //    119 a..aaabbbcccdddeeefffggghhhiiijjjjkkklllmmmnnnnoooppppqqqqrrrrssssttttuuuuuvvvvvwwwwwwxxxxxxyyyyyyyyzzzzzzzzzzzz++++++++++++++++
(PID.TID 0000.0001) //    118 a..aaabbbcccdddeeefffggghhhiiiijjjkkklllmmmmnnnoooppppqqqqrrrrssssttttuuuuuvvvvvwwwwwwxxxxxxyyyyyyyyzzzzzzzzzzzz++++++++++++++++
(PID.TID 0000.0001) //    117 a..aaabbbcccdddeeefffggghhhiiiijjjkkklllmmmmnnnoooopppqqqqrrrrssssttttuuuuuvvvvvwwwwwwxxxxxxxyyyyyyyyzzzzzzzzzzzz+++++++++++++++
(PID.TID 0000.0001) //    116 a..aaabbbcccdddeeefffggghhhiiiijjjkkklllmmmmnnnoooopppqqqqrrrrsssstttttuuuuvvvvvwwwwwwxxxxxxxyyyyyyyyzzzzzzzzzzzz+++++++++++++++
(PID.TID 0000.0001) //    115 -..-aabbbcccdddeeefffggghhhiiiijjjkkklllmmmmnnnoooopppqqqqrrrrsssstttttuuuuvvvvvvwwwwwxxxxxxxyyyyyyyyzzzzzzzzzzzzz++++++++++++++
(PID.TID 0000.0001) //    114 -..-aabbbcccdddeeefffggghhhhiiijjjkkklllmmmmnnnoooopppqqqqrrrrsssstttttuuuuuvvvvvwwwwwwxxxxxxyyyyyyyyyzzzzzzzzzzzzz+++++++++++++
(PID.TID 0000.0001) //    113 -..-aabbbcccdddeeefffggghhhhiiijjjkkklllmmmmnnnooooppppqqqrrrrsssssttttuuuuuvvvvvwwwwwwxxxxxxxyyyyyyyyzzzzzzzzzzzzzz++++++++++++
(PID.TID 0000.0001) //    112 -..-aabbbcccdddeeefffgggghhhiiijjjkkkllllmmmnnnooooppppqqqqrrrrssssttttuuuuuvvvvvwwwwwwxxxxxxxyyyyyyyyyzzzzzzzzzzzzzz+++++++++++
(PID.TID 0000.0001) //    111 -..-aabbbcccdddeeeffffggghhhiiijjjkkkllllmmmnnnnoooppppqqqqrrrrssssttttuuuuuvvvvvvwwwwwxxxxxxxyyyyyyyyyzzzzzzzzzzzzzzzz+++++++++
(PID.TID 0000.0001) //    110 -..-aabbbcccdddeeeffffggghhhiiijjjkkkllllmmmnnnnoooppppqqqqrrrrsssstttttuuuuuvvvvvwwwwwwxxxxxxxyyyyyyyyyzzzzzzzzzzzzzzzzz+++++++
(PID.TID 0000.0001) //    109 -..-aaabbcccddddeeefffggghhhiiijjjkkkllllmmmnnnnoooppppqqqqrrrrsssstttttuuuuuvvvvvwwwwwwxxxxxxxyyyyyyyyyzzzzzzzzzzzzzzzzzzzzzzzz
(PID.TID 0000.0001) //    108 -..-aaabbbcccdddeeefffggghhhiiijjjkkkklllmmmnnnnoooopppqqqqrrrrsssssttttuuuuuvvvvvwwwwwwwxxxxxxxyyyyyyyyyzzzzzzzzzzzzzzzzzzzzzzz
(PID.TID 0000.0001) //    107 -..-aaabbbcccdddeeefffggghhhiiijjjkkkklllmmmnnnnoooopppqqqqrrrrsssssttttuuuuuvvvvvvwwwwwwxxxxxxxyyyyyyyyyyzzzzzzzzzzzzzzzzzzzzzz
(PID.TID 0000.0001) //    106 -..-aaabbbcccdddeeefffggghhhiiijjjkkkklllmmmmnnnooooppppqqqqrrrrsssstttttuuuuuvvvvvwwwwwwxxxxxxxxyyyyyyyyyyzzzzzzzzzzzzzzzzzzzzz
(PID.TID 0000.0001) //    105 -..-aaabbbcccdddeeefffggghhhiiijjjjkkklllmmmmnnnooooppppqqqqrrrrsssstttttuuuuuvvvvvvwwwwwwxxxxxxxxyyyyyyyyyyzzzzzzzzzzzzzzzzzzzz
(PID.TID 0000.0001) //    104 -..-aaabbbcccdddeeefffggghhhiiijjjjkkklllmmmmnnnnoooppppqqqqrrrrsssssttttuuuuuvvvvvvwwwwwwwxxxxxxxyyyyyyyyyyyzzzzzzzzzzzzzzzzzzz
(PID.TID 0000.0001) //    103 -..-aaabbbcccdddeeefffggghhhiiiijjjkkkllllmmmnnnnoooppppqqqqrrrrssssstttttuuuuuvvvvvvwwwwwwxxxxxxxxyyyyyyyyyyyzzzzzzzzzzzzzzzzzz
(PID.TID 0000.0001) //    102 -..-aaabbbcccdddeeefffggghhhiiiijjjkkkllllmmmnnnnooooppppqqqqrrrrsssstttttuuuuuvvvvvvwwwwwwwxxxxxxxxyyyyyyyyyyyyzzzzzzzzzzzzzzzz
(PID.TID 0000.0001) //    101 -..-aaabbbcccdddeeefffggghhhhiiijjjkkkllllmmmnnnnooooppppqqqqrrrrsssssttttuuuuuuvvvvvvwwwwwwxxxxxxxxxyyyyyyyyyyyyyzzzzzzzzzzzzzz
(PID.TID 0000.0001) //    100 -..-aaabbbcccdddeeefffggghhhhiiijjjkkkklllmmmmnnnooooppppqqqqrrrrssssstttttuuuuuvvvvvvwwwwwwwxxxxxxxxxyyyyyyyyyyyyyyzzzzzzzzzzzz
(PID.TID 0000.0001) //     99 -..-aaabbbcccdddeeefffggghhhhiiijjjkkkklllmmmmnnnnoooppppqqqqrrrrrsssstttttuuuuuuvvvvvvwwwwwwwxxxxxxxxxyyyyyyyyyyyyyyyyzzzzzzzzz
(PID.TID 0000.0001) //     98 -..-aaabbbcccdddeeefffgggghhhiiijjjjkkklllmmmmnnnnooooppppqqqqrrrrssssstttttuuuuuvvvvvvwwwwwwwwxxxxxxxxxyyyyyyyyyyyyyyyyyyyyyyyy
(PID.TID 0000.0001) //     97 -..-aaabbbcccdddeeefffgggghhhiiijjjjkkkllllmmmnnnnooooppppqqqqrrrrssssstttttuuuuuuvvvvvvwwwwwwwxxxxxxxxxxyyyyyyyyyyyyyyyyyyyyyyy
(PID.TID 0000.0001) //     96 -..-aaabbbcccdddeeeffffggghhhiiijjjjkkkllllmmmmnnnooooppppqqqqrrrrrssssstttttuuuuuvvvvvvvwwwwwwwxxxxxxxxxxxyyyyyyyyyyyyyyyyyyyyy
(PID.TID 0000.0001) //     95 -..-aaabbbcccdddeeeffffggghhhiiiijjjkkkklllmmmmnnnnooopppppqqqqrrrrssssstttttuuuuuuvvvvvvvwwwwwwwxxxxxxxxxxxyyyyyyyyyyyyyyyyyyyy
(PID.TID 0000.0001) //     94 -..-aaabbbcccdddeeeefffggghhhiiiijjjkkkklllmmmmnnnnooooppppqqqqrrrrrssssstttttuuuuuuvvvvvvwwwwwwwwxxxxxxxxxxxxyyyyyyyyyyyyyyyyyy
(PID.TID 0000.0001) //     93 -..-aaabbbcccdddeeeefffggghhhhiiijjjkkkkllllmmmnnnnooooppppqqqqqrrrrssssstttttuuuuuuvvvvvvvwwwwwwwwwxxxxxxxxxxxxyyyyyyyyyyyyyyyy
(PID.TID 0000.0001) //     92 -..-aaabbbcccdddeeeefffggghhhhiiijjjjkkkllllmmmmnnnoooopppppqqqqrrrrrssssstttttuuuuuuvvvvvvvwwwwwwwwwxxxxxxxxxxxxxxyyyyyyyyyyyyy
(PID.TID 0000.0001) //     91 -..-aaabbbcccddddeeefffggghhhhiiijjjjkkkllllmmmmnnnnooooppppqqqqrrrrrsssssttttttuuuuuuvvvvvvvwwwwwwwwwxxxxxxxxxxxxxxxxxyyyyyyyyy
(PID.TID 0000.0001) //     90 -..-aaabbbcccddddeeefffgggghhhiiiijjjkkkklllmmmmnnnnooooppppqqqqqrrrrrssssstttttuuuuuuuvvvvvvvwwwwwwwwwwxxxxxxxxxxxxxxxxxxxxxxxx
(PID.TID 0000.0001) //     89 -..-aaabbbcccddddeeefffgggghhhiiiijjjkkkkllllmmmnnnnoooooppppqqqqrrrrrsssssttttttuuuuuuuvvvvvvvwwwwwwwwwwwxxxxxxxxxxxxxxxxxxxxxx
(PID.TID 0000.0001) //     88 -..-aaabbbccccdddeeeffffggghhhiiiijjjjkkkllllmmmmnnnnooooppppqqqqqrrrrrsssssttttttuuuuuuuvvvvvvvvwwwwwwwwwwxxxxxxxxxxxxxxxxxxxxx
(PID.TID 0000.0001) //     87 -..-aaabbbccccdddeeeffffggghhhhiiijjjjkkkllllmmmmnnnnoooopppppqqqqrrrrrssssssttttttuuuuuuuvvvvvvvvwwwwwwwwwwwwxxxxxxxxxxxxxxxxxx
(PID.TID 0000.0001) //     86 -..-aaabbbccccdddeeeffffggghhhhiiijjjjkkkkllllmmmmnnnnooooppppqqqqqrrrrrssssssttttttuuuuuuuvvvvvvvvwwwwwwwwwwwwwxxxxxxxxxxxxxxxx
(PID.TID 0000.0001) //     85 -..-aaabbbccccdddeeeefffggghhhhiiiijjjkkkkllllmmmmnnnnoooopppppqqqqqrrrrrssssstttttttuuuuuuuvvvvvvvvvwwwwwwwwwwwwwwwxxxxxxxxxxxx
(PID.TID 0000.0001) //     84 -..-aaabbbccccdddeeeefffgggghhhiiiijjjjkkkllllmmmmnnnnoooooppppqqqqqrrrrrsssssstttttttuuuuuuuvvvvvvvvvvwwwwwwwwwwwwwwwwwwwxxxxxx
(PID.TID 0000.0001) //     83 -..-aaabbbccccdddeeeefffgggghhhiiiijjjjkkkkllllmmmmnnnnoooopppppqqqqqrrrrrsssssstttttttuuuuuuuvvvvvvvvvvvwwwwwwwwwwwwwwwwwwwwwww
(PID.TID 0000.0001) //     82 -..-aaabbbbcccdddeeeefffgggghhhhiiijjjjkkkkllllmmmmnnnnooooopppppqqqqqrrrrrsssssstttttttuuuuuuuuvvvvvvvvvvvwwwwwwwwwwwwwwwwwwwww
(PID.TID 0000.0001) //     81 -..-aaabbbbcccddddeeeffffggghhhhiiiijjjkkkkllllmmmmmnnnnoooopppppqqqqqrrrrrrsssssstttttttuuuuuuuuvvvvvvvvvvvvwwwwwwwwwwwwwwwwwww
(PID.TID 0000.0001) //     80 -..-aaabbbbcccddddeeeffffggghhhhiiiijjjjkkkkllllmmmmnnnnooooopppppqqqqqrrrrrrsssssstttttttuuuuuuuuuvvvvvvvvvvvvvvwwwwwwwwwwwwwww
(PID.TID 0000.0001) //     79 -..-aaabbbbcccddddeeeffffgggghhhiiiijjjjkkkkllllmmmmnnnnnoooooppppqqqqqqrrrrrrsssssstttttttuuuuuuuuuuvvvvvvvvvvvvvvvvwwwwwwwwwww
(PID.TID 0000.0001) //     78 -..-aaabbbbcccddddeeeefffgggghhhhiiiijjjkkkklllllmmmmnnnnooooopppppqqqqqqrrrrrsssssssttttttttuuuuuuuuuuvvvvvvvvvvvvvvvvvvvvvvvvv
(PID.TID 0000.0001) //     77 -..-aaabbbbcccddddeeeefffgggghhhhiiiijjjjkkkkllllmmmmnnnnnooooopppppqqqqqrrrrrrsssssssttttttttuuuuuuuuuuuvvvvvvvvvvvvvvvvvvvvvvv
(PID.TID 0000.0001) //     76 -..-aaabbbbccccdddeeeeffffggghhhhiiiijjjjkkkklllllmmmmnnnnnooooopppppqqqqqrrrrrrrsssssssttttttttuuuuuuuuuuuuvvvvvvvvvvvvvvvvvvvv
(PID.TID 0000.0001) //     75 -..-aaabbbbccccdddeeeeffffgggghhhhiiiijjjjkkkkllllmmmmmnnnnoooooppppppqqqqqrrrrrrrssssssstttttttttuuuuuuuuuuuuuuvvvvvvvvvvvvvvvv
(PID.TID 0000.0001) //     74 -..-aaaabbbccccddddeeeffffgggghhhhiiiijjjjkkkklllllmmmmnnnnnooooopppppqqqqqqrrrrrrrsssssssttttttttttuuuuuuuuuuuuuuuuvvvvvvvvvvvv
(PID.TID 0000.0001) //     73 -..-aaaabbbccccddddeeeffffgggghhhhiiiijjjjkkkkkllllmmmmmnnnnnooooopppppqqqqqqrrrrrrrssssssssttttttttttuuuuuuuuuuuuuuuuuuuuuuuuuu
(PID.TID 0000.0001) //     72 -..-aaaabbbccccddddeeeeffffgggghhhhiiiijjjjkkkklllllmmmmnnnnnoooooopppppqqqqqqrrrrrrrssssssssstttttttttttuuuuuuuuuuuuuuuuuuuuuuu
(PID.TID 0000.0001) //     71 -..-aaaabbbccccddddeeeeffffgggghhhhiiiijjjjkkkkkllllmmmmmnnnnnoooooppppppqqqqqqqrrrrrrrsssssssssttttttttttttuuuuuuuuuuuuuuuuuuuu
(PID.TID 0000.0001) //     70 -..-aaaabbbbcccddddeeeeffffgggghhhhiiiijjjjjkkkklllllmmmmmnnnnnoooooppppppqqqqqqqrrrrrrrssssssssssttttttttttttttuuuuuuuuuuuuuuuu
(PID.TID 0000.0001) //     69 -..-aaaabbbbccccdddeeeeffffgggghhhhhiiiijjjjkkkkklllllmmmmnnnnnnoooooppppppqqqqqqqrrrrrrrrssssssssssttttttttttttttttttuuuuuuuuuu
(PID.TID 0000.0001) //     68 -..-aaaabbbbccccddddeeeeffffgggghhhhiiiijjjjjkkkklllllmmmmmnnnnnnooooopppppppqqqqqqqrrrrrrrrsssssssssssttttttttttttttttttttttttt
(PID.TID 0000.0001) //     67 -..-aaaabbbbccccddddeeeeffffgggghhhhiiiiijjjjkkkkklllllmmmmmnnnnnoooooopppppppqqqqqqqrrrrrrrrrsssssssssssstttttttttttttttttttttt
(PID.TID 0000.0001) //     66 -..-aaaabbbbccccddddeeeeffffggggghhhhiiiijjjjjkkkkklllllmmmmmnnnnnoooooopppppppqqqqqqqqrrrrrrrrrsssssssssssssstttttttttttttttttt
(PID.TID 0000.0001) //     65 -..-aaaabbbbccccddddeeeefffffgggghhhhiiiiijjjjkkkkklllllmmmmmmnnnnnoooooooppppppqqqqqqqqrrrrrrrrrrsssssssssssssssssttttttttttttt
(PID.TID 0000.0001) //     64 -..-aaaabbbbccccddddeeeeeffffgggghhhhhiiiijjjjjkkkkklllllmmmmmmnnnnnooooooopppppppqqqqqqqqrrrrrrrrrrrsssssssssssssssssssssssssss
(PID.TID 0000.0001) //     63 -..-aaaabbbbccccdddddeeeeffffggggghhhhiiiiijjjjjkkkkklllllmmmmmmnnnnnnooooooppppppppqqqqqqqqrrrrrrrrrrrrssssssssssssssssssssssss
(PID.TID 0000.0001) //     62 -..-aaaabbbbcccccddddeeeefffffgggghhhhhiiiijjjjjkkkkkllllllmmmmmmnnnnnnooooooopppppppqqqqqqqqqqrrrrrrrrrrrrrssssssssssssssssssss
(PID.TID 0000.0001) //     61 -..-aaaabbbbbccccddddeeeeeffffggggghhhhiiiiijjjjjkkkkkllllllmmmmmmnnnnnnoooooooppppppppqqqqqqqqqqrrrrrrrrrrrrrrrrrssssssssssssss
(PID.TID 0000.0001) //     60 -..-aaaabbbbbccccddddeeeeeffffggggghhhhhiiiiijjjjjkkkkkllllllmmmmmmnnnnnnooooooooppppppppqqqqqqqqqqqrrrrrrrrrrrrrrrrrrrrrrrrrrrr
(PID.TID 0000.0001) //     59 -..-aaaaabbbbccccdddddeeeefffffggggghhhhiiiiijjjjjkkkkkkllllllmmmmmmnnnnnnnooooooopppppppppqqqqqqqqqqqqqrrrrrrrrrrrrrrrrrrrrrrrr
(PID.TID 0000.0001) //     58 -..-aaaaabbbbcccccddddeeeeeffffggggghhhhhiiiiijjjjjkkkkkkllllllmmmmmmnnnnnnnooooooooppppppppppqqqqqqqqqqqqqqrrrrrrrrrrrrrrrrrrrr
(PID.TID 0000.0001) //     57 -..-aaaaabbbbcccccddddeeeeefffffggggghhhhhiiiiijjjjjkkkkkkllllllmmmmmmnnnnnnnnoooooooopppppppppppqqqqqqqqqqqqqqqqqrrrrrrrrrrrrrr
(PID.TID 0000.0001) //     56 -..-aaaaabbbbcccccdddddeeeefffffggggghhhhhiiiiijjjjjjkkkkkkllllllmmmmmmmnnnnnnnoooooooooppppppppppppqqqqqqqqqqqqqqqqqqqqqqqqqqqq
(PID.TID 0000.0001) //     55 -..-aaaaabbbbbccccdddddeeeeefffffggggghhhhhiiiiijjjjjjkkkkkkllllllmmmmmmmnnnnnnnnoooooooooopppppppppppppqqqqqqqqqqqqqqqqqqqqqqqq
(PID.TID 0000.0001) //     54 -..-aaaaabbbbbccccdddddeeeeefffffggggghhhhhhiiiiijjjjjjkkkkkklllllllmmmmmmmnnnnnnnnoooooooooopppppppppppppppqqqqqqqqqqqqqqqqqqqq
(PID.TID 0000.0001) //     53 -..-aaaaabbbbbcccccdddddeeeeefffffggggghhhhhiiiiiijjjjjjkkkkkklllllllmmmmmmmmnnnnnnnnooooooooooopppppppppppppppppppqqqqqqqqqqqqq
(PID.TID 0000.0001) //     52 -..-aaaaabbbbbcccccdddddeeeeefffffgggggghhhhhiiiiiijjjjjjkkkkkkllllllllmmmmmmmnnnnnnnnnnoooooooooooopppppppppppppppppppppppppppp
(PID.TID 0000.0001) //     51 -..-aaaaabbbbbcccccdddddeeeeeefffffggggghhhhhhiiiiiijjjjjjkkkkkkklllllllmmmmmmmmnnnnnnnnnnoooooooooooooopppppppppppppppppppppppp
(PID.TID 0000.0001) //     50 -..--aaaaabbbbbcccccdddddeeeeefffffgggggghhhhhhiiiiiijjjjjjkkkkkkkllllllllmmmmmmmmmnnnnnnnnnnooooooooooooooooopppppppppppppppppp
(PID.TID 0000.0001) //     49 -..--aaaaabbbbbcccccdddddeeeeeefffffgggggghhhhhhiiiiiijjjjjjkkkkkkkkllllllllmmmmmmmmmnnnnnnnnnnnnooooooooooooooooooooooppppppppp
(PID.TID 0000.0001) //     48 -..--aaaaabbbbbcccccddddddeeeeeffffffgggggghhhhhhiiiiiijjjjjjjkkkkkkklllllllllmmmmmmmmmmnnnnnnnnnnnnnooooooooooooooooooooooooooo
(PID.TID 0000.0001) //     47 -..--aaaaabbbbbccccccdddddeeeeeefffffgggggghhhhhhhiiiiiijjjjjjjkkkkkkkklllllllllmmmmmmmmmmnnnnnnnnnnnnnnnnoooooooooooooooooooooo
(PID.TID 0000.0001) //     46 -..--aaaaabbbbbbcccccddddddeeeeeffffffgggggghhhhhhhiiiiiijjjjjjjjkkkkkkkklllllllllmmmmmmmmmmmmnnnnnnnnnnnnnnnnnnnooooooooooooooo
(PID.TID 0000.0001) //     45 -..--aaaaabbbbbbcccccddddddeeeeeeffffffgggggghhhhhhhiiiiiiijjjjjjjkkkkkkkkkllllllllllmmmmmmmmmmmmmnnnnnnnnnnnnnnnnnnnnnnnnnnnnnn
(PID.TID 0000.0001) //     44 -..--aaaaabbbbbbccccccddddddeeeeeeffffffgggggghhhhhhhiiiiiiijjjjjjjjkkkkkkkkklllllllllllmmmmmmmmmmmmmmnnnnnnnnnnnnnnnnnnnnnnnnnn
(PID.TID 0000.0001) //     43 -..--aaaaaabbbbbccccccddddddeeeeeefffffffgggggghhhhhhhiiiiiiiijjjjjjjjkkkkkkkkkllllllllllllmmmmmmmmmmmmmmmmmnnnnnnnnnnnnnnnnnnnn
(PID.TID 0000.0001) //     42 -..--aaaaaabbbbbbccccccddddddeeeeeefffffffgggggghhhhhhhhiiiiiiijjjjjjjjjkkkkkkkkkklllllllllllllmmmmmmmmmmmmmmmmmmmmmmmmmnnnnnnnn
(PID.TID 0000.0001) //     41 -..--aaaaaabbbbbbccccccddddddeeeeeeefffffffggggggghhhhhhhiiiiiiiijjjjjjjjjkkkkkkkkkkkllllllllllllllmmmmmmmmmmmmmmmmmmmmmmmmmmmmm
(PID.TID 0000.0001) //     40 -..--aaaaaabbbbbbcccccccddddddeeeeeeefffffffggggggghhhhhhhhiiiiiiiijjjjjjjjjjkkkkkkkkkkklllllllllllllllllmmmmmmmmmmmmmmmmmmmmmmm
(PID.TID 0000.0001) //     39 -..--aaaaaabbbbbbbccccccdddddddeeeeeeefffffffggggggghhhhhhhhiiiiiiiiijjjjjjjjjjkkkkkkkkkkkkkllllllllllllllllllllllmmmmmmmmmmmmmm
(PID.TID 0000.0001) //     38 -..--aaaaaaabbbbbbcccccccddddddeeeeeeeffffffffgggggggghhhhhhhhiiiiiiiiijjjjjjjjjjjkkkkkkkkkkkkkkklllllllllllllllllllllllllllllll
(PID.TID 0000.0001) //     37 -..--aaaaaaabbbbbbbccccccdddddddeeeeeeeffffffffgggggggghhhhhhhhhiiiiiiiiiijjjjjjjjjjjjkkkkkkkkkkkkkkkkllllllllllllllllllllllllll
(PID.TID 0000.0001) //     36 -..--aaaaaaabbbbbbbcccccccdddddddeeeeeeeefffffffggggggggghhhhhhhhhiiiiiiiiiiijjjjjjjjjjjjjkkkkkkkkkkkkkkkkkkkkllllllllllllllllll
(PID.TID 0000.0001) //     35 -..---aaaaaabbbbbbbccccccccdddddddeeeeeeeeffffffffggggggggghhhhhhhhhiiiiiiiiiiiijjjjjjjjjjjjjjkkkkkkkkkkkkkkkkkkkkkkkkkkkkkkkkkk
(PID.TID 0000.0001) //     34 -..---aaaaaaabbbbbbbcccccccddddddddeeeeeeeeffffffffgggggggggghhhhhhhhhhiiiiiiiiiiiijjjjjjjjjjjjjjjjjkkkkkkkkkkkkkkkkkkkkkkkkkkkk
(PID.TID 0000.0001) //     33 -..---aaaaaaabbbbbbbccccccccddddddddeeeeeeeefffffffffgggggggggghhhhhhhhhhhiiiiiiiiiiiiijjjjjjjjjjjjjjjjjjjjkkkkkkkkkkkkkkkkkkkkk
(PID.TID 0000.0001) //     32 -..---aaaaaaabbbbbbbbccccccccddddddddeeeeeeeeefffffffffgggggggggghhhhhhhhhhhhiiiiiiiiiiiiiiijjjjjjjjjjjjjjjjjjjjjjjjjjjjjjjjjjjj
(PID.TID 0000.0001) //     31 -..---aaaaaaaabbbbbbbbccccccccddddddddeeeeeeeeeffffffffffggggggggggghhhhhhhhhhhhiiiiiiiiiiiiiiiiijjjjjjjjjjjjjjjjjjjjjjjjjjjjjjj
(PID.TID 0000.0001) //     30 -..---aaaaaaaabbbbbbbbcccccccccddddddddeeeeeeeeeeffffffffffggggggggggghhhhhhhhhhhhhhiiiiiiiiiiiiiiiiiiiiijjjjjjjjjjjjjjjjjjjjjjj
(PID.TID 0000.0001) //     29 -..---aaaaaaaaabbbbbbbbcccccccccdddddddddeeeeeeeeeeffffffffffggggggggggggghhhhhhhhhhhhhhhiiiiiiiiiiiiiiiiiiiiiiiiiiiiiiijjjjjjjj
(PID.TID 0000.0001) //     28 -..---aaaaaaaaabbbbbbbbbcccccccccdddddddddeeeeeeeeeeefffffffffffggggggggggggghhhhhhhhhhhhhhhhhhiiiiiiiiiiiiiiiiiiiiiiiiiiiiiiiii
(PID.TID 0000.0001) //     27 -..----aaaaaaaabbbbbbbbbbcccccccccddddddddddeeeeeeeeeeeffffffffffffgggggggggggggghhhhhhhhhhhhhhhhhhhhhhiiiiiiiiiiiiiiiiiiiiiiiii
(PID.TID 0000.0001) //     26 -..----aaaaaaaaabbbbbbbbbccccccccccdddddddddddeeeeeeeeeeefffffffffffffgggggggggggggggghhhhhhhhhhhhhhhhhhhhhhhhhhhhhhiiiiiiiiiiii
(PID.TID 0000.0001) //     25 -..----aaaaaaaaaabbbbbbbbbcccccccccccdddddddddddeeeeeeeeeeeeffffffffffffffgggggggggggggggggghhhhhhhhhhhhhhhhhhhhhhhhhhhhhhhhhhhh
(PID.TID 0000.0001) //     24 -..----aaaaaaaaaabbbbbbbbbbcccccccccccddddddddddddeeeeeeeeeeeeefffffffffffffffgggggggggggggggggggggghhhhhhhhhhhhhhhhhhhhhhhhhhhh
(PID.TID 0000.0001) //     23 -..----aaaaaaaaaaabbbbbbbbbbbcccccccccccddddddddddddeeeeeeeeeeeeeefffffffffffffffffggggggggggggggggggggggggggggggghhhhhhhhhhhhhh
(PID.TID 0000.0001) //     22 -..-----aaaaaaaaaaabbbbbbbbbbbccccccccccccdddddddddddddeeeeeeeeeeeeeeeffffffffffffffffffffgggggggggggggggggggggggggggggggggggggg
(PID.TID 0000.0001) //     21 -..-----aaaaaaaaaaabbbbbbbbbbbbcccccccccccccddddddddddddddeeeeeeeeeeeeeeeeffffffffffffffffffffffffgggggggggggggggggggggggggggggg
(PID.TID 0000.0001) //     20 -..-----aaaaaaaaaaaabbbbbbbbbbbbbcccccccccccccdddddddddddddddeeeeeeeeeeeeeeeeeeefffffffffffffffffffffffffffffffffggggggggggggggg
(PID.TID 0000.0001) //     19 -..-----aaaaaaaaaaaaabbbbbbbbbbbbbcccccccccccccccddddddddddddddddeeeeeeeeeeeeeeeeeeeeeefffffffffffffffffffffffffffffffffffffffff
(PID.TID 0000.0001) //     18 -..------aaaaaaaaaaaaabbbbbbbbbbbbbbccccccccccccccccddddddddddddddddddeeeeeeeeeeeeeeeeeeeeeeeeeeffffffffffffffffffffffffffffffff
(PID.TID 0000.0001) //     17 -..------aaaaaaaaaaaaaaabbbbbbbbbbbbbbbccccccccccccccccdddddddddddddddddddddeeeeeeeeeeeeeeeeeeeeeeeeeeeeeeeeeeefffffffffffffffff
(PID.TID 0000.0001) //     16 -..-------aaaaaaaaaaaaaaabbbbbbbbbbbbbbbbcccccccccccccccccccdddddddddddddddddddddddeeeeeeeeeeeeeeeeeeeeeeeeeeeeeeeeeeeeeeeeeeeee
(PID.TID 0000.0001) //     15 -..-------aaaaaaaaaaaaaaaaabbbbbbbbbbbbbbbbbccccccccccccccccccccdddddddddddddddddddddddddddddeeeeeeeeeeeeeeeeeeeeeeeeeeeeeeeeeee
(PID.TID 0000.0001) //     14 -..--------aaaaaaaaaaaaaaaaabbbbbbbbbbbbbbbbbbbbcccccccccccccccccccccccddddddddddddddddddddddddddddddddddddddddeeeeeeeeeeeeeeeee
(PID.TID 0000.0001) //     13 -..--------aaaaaaaaaaaaaaaaaaaabbbbbbbbbbbbbbbbbbbbbccccccccccccccccccccccccccdddddddddddddddddddddddddddddddddddddddddddddddddd
(PID.TID 0000.0001) //     12 -..---------aaaaaaaaaaaaaaaaaaaaabbbbbbbbbbbbbbbbbbbbbbbbcccccccccccccccccccccccccccccccccdddddddddddddddddddddddddddddddddddddd
(PID.TID 0000.0001) //     11 -..----------aaaaaaaaaaaaaaaaaaaaaaabbbbbbbbbbbbbbbbbbbbbbbbbbbcccccccccccccccccccccccccccccccccccccccccccccccdddddddddddddddddd
(PID.TID 0000.0001) //     10 -..-----------aaaaaaaaaaaaaaaaaaaaaaaaaabbbbbbbbbbbbbbbbbbbbbbbbbbbbbbbbcccccccccccccccccccccccccccccccccccccccccccccccccccccccc
(PID.TID 0000.0001) //      9 -..-------------aaaaaaaaaaaaaaaaaaaaaaaaaaaaabbbbbbbbbbbbbbbbbbbbbbbbbbbbbbbbbbbbbbbcccccccccccccccccccccccccccccccccccccccccccc
(PID.TID 0000.0001) //      8 -..---------------aaaaaaaaaaaaaaaaaaaaaaaaaaaaaaaaaabbbbbbbbbbbbbbbbbbbbbbbbbbbbbbbbbbbbbbbbbbbbbbbbbbbbbbbbbbcccccccccccccccccc
(PID.TID 0000.0001) //      7 -..-----------------aaaaaaaaaaaaaaaaaaaaaaaaaaaaaaaaaaaaaaaaabbbbbbbbbbbbbbbbbbbbbbbbbbbbbbbbbbbbbbbbbbbbbbbbbbbbbbbbbbbbbbbbbbb
(PID.TID 0000.0001) //      6 -..---------------------aaaaaaaaaaaaaaaaaaaaaaaaaaaaaaaaaaaaaaaaaaaaaaaaaaaabbbbbbbbbbbbbbbbbbbbbbbbbbbbbbbbbbbbbbbbbbbbbbbbbbbb
(PID.TID 0000.0001) //      5 -..--------------------------aaaaaaaaaaaaaaaaaaaaaaaaaaaaaaaaaaaaaaaaaaaaaaaaaaaaaaaaaaaaaaaaaaaaaaaaaaaaaaaaaabbbbbbbbbbbbbbbbb
(PID.TID 0000.0001) //      4 -..----------------------------------aaaaaaaaaaaaaaaaaaaaaaaaaaaaaaaaaaaaaaaaaaaaaaaaaaaaaaaaaaaaaaaaaaaaaaaaaaaaaaaaaaaaaaaaaaa
(PID.TID 0000.0001) //      3 -..-------------------------------------------------aaaaaaaaaaaaaaaaaaaaaaaaaaaaaaaaaaaaaaaaaaaaaaaaaaaaaaaaaaaaaaaaaaaaaaaaaaaa
(PID.TID 0000.0001) //      2 -..------------------------------------------------------------------------------------------------------------------aaaaaaaaaaa
(PID.TID 0000.0001) //      1 ................................................................................................................................
(PID.TID 0000.0001) //      0 ................................................................................................................................
(PID.TID 0000.0001) //     -1 -..------------------------------------------------------------------------------------------------------------------aaaaaaaaaaa
(PID.TID 0000.0001) // =======================================================
(PID.TID 0000.0001) // END OF FIELD                                          =
(PID.TID 0000.0001) // =======================================================
(PID.TID 0000.0001) 
(PID.TID 0000.0001) // =======================================================
(PID.TID 0000.0001) // Field Model Ro_surf (ini_masks_etc)
(PID.TID 0000.0001) // CMIN =          1.000000000000000E+32
(PID.TID 0000.0001) // CMAX =         -1.000000000000000E+32
(PID.TID 0000.0001) // CINT =          0.000000000000000E+00
(PID.TID 0000.0001) // SYMBOLS (CMIN->CMAX): -abcdefghijklmnopqrstuvwxyz+
(PID.TID 0000.0001) //                  0.0: .
(PID.TID 0000.0001) // RANGE I (Lo:Hi:Step):(    -1:   126:     1)
(PID.TID 0000.0001) // RANGE J (Lo:Hi:Step):(   126:    -1:    -1)
(PID.TID 0000.0001) // RANGE K (Lo:Hi:Step):(   1:   1:   1)
(PID.TID 0000.0001) // =======================================================
(PID.TID 0000.0001) // =======================================================
(PID.TID 0000.0001) // END OF FIELD                                          =
(PID.TID 0000.0001) // =======================================================
(PID.TID 0000.0001) 
(PID.TID 0000.0001) // =======================================================
(PID.TID 0000.0001) // Field hFacC at iteration          0
(PID.TID 0000.0001) // CMIN =          9.000040039062500E-01
(PID.TID 0000.0001) // CMAX =          9.999638671875001E-01
(PID.TID 0000.0001) // CINT =          3.702217158564817E-03
(PID.TID 0000.0001) // SYMBOLS (CMIN->CMAX): -abcdefghijklmnopqrstuvwxyz+
(PID.TID 0000.0001) //                  0.0: .
(PID.TID 0000.0001) // RANGE I (Lo:Hi:Step):(    -1:   126:     1)
(PID.TID 0000.0001) // RANGE J (Lo:Hi:Step):(   126:    -1:    -1)
(PID.TID 0000.0001) // RANGE K (Lo:Hi:Step):(   1:   1:   1)
(PID.TID 0000.0001) // =======================================================
(PID.TID 0000.0001) K =   1
(PID.TID 0000.0001) //                I=8       I=18      I=28      I=38      I=48      I=58      I=68      I=78      I=88      I=98      I=108     I=118
(PID.TID 0000.0001) // |--J--|101234567|901234567|901234567|901234567|901234567|901234567|901234567|901234567|901234567|901234567|901234567|901234567|90123456
(PID.TID 0000.0001) //    126 z..zzzyyyxxxwwwvvvuuutttsssrrrqqqqpppooonnnmmmmlllkkkkjjjjiiiihhhhggggfffffeeeeedddddcccccccbbbbbbbbaaaaaaaaaaa-----------------
(PID.TID 0000.0001) //    125 z..zzzyyyxxxwwwvvvuuutttsssrrrqqqqpppooonnnmmmmlllkkkkjjjjiiiihhhhggggfffffeeeeedddddcccccccbbbbbbbbaaaaaaaaaaa-----------------
(PID.TID 0000.0001) //    124 z..zzzyyyxxxwwwvvvuuutttsssrrrqqqqpppooonnnmmmmlllkkkkjjjjiiiihhhhggggfffffeeeeedddddcccccccbbbbbbbbaaaaaaaaaaa-----------------
(PID.TID 0000.0001) //    123 z..zzzyyyxxxwwwvvvuuutttsssrrrqqqqpppooonnnmmmmlllkkkkjjjjiiiihhhhggggfffffeeeeedddddcccccccbbbbbbbbaaaaaaaaaaa-----------------
(PID.TID 0000.0001) //    122 z..zzzyyyxxxwwwvvvuuutttsssrrrqqqqpppooonnnmmmmlllkkkkjjjjiiiihhhhggggfffffeeeeedddddcccccccbbbbbbbbaaaaaaaaaaa-----------------
(PID.TID 0000.0001) //    121 z..zzzyyyxxxwwwvvvuuutttsssrrrqqqqpppooonnnmmmmlllkkkkjjjjiiiihhhhggggfffffeeeeedddddcccccccbbbbbbbbaaaaaaaaaaa-----------------
(PID.TID 0000.0001) //    120 z..zzzyyyxxxwwwvvvuuutttsssrrrqqqqpppooonnnmmmmlllkkkkjjjjiiiihhhhggggfffffeeeeeddddddccccccbbbbbbbbaaaaaaaaaaa-----------------
(PID.TID 0000.0001) //    119 z..zzzyyyxxxwwwvvvuuutttsssrrrqqqqpppooonnnmmmmlllkkkkjjjjiiiihhhhggggfffffeeeeeddddddccccccbbbbbbbbaaaaaaaaaaaa----------------
(PID.TID 0000.0001) //    118 z..zzzyyyxxxwwwvvvuuutttsssrrrrqqqpppooonnnnmmmlllkkkkjjjjiiiihhhhggggfffffeeeeeddddddccccccbbbbbbbbaaaaaaaaaaaa----------------
(PID.TID 0000.0001) //    117 z..zzzyyyxxxwwwvvvuuutttsssrrrrqqqpppooonnnnmmmllllkkkjjjjiiiihhhhggggfffffeeeeeddddddcccccccbbbbbbbbaaaaaaaaaaaa---------------
(PID.TID 0000.0001) //    116 z..zzzyyyxxxwwwvvvuuutttsssrrrrqqqpppooonnnnmmmllllkkkjjjjiiiihhhhgggggffffeeeeeddddddcccccccbbbbbbbbaaaaaaaaaaaa---------------
(PID.TID 0000.0001) //    115 +..+zzyyyxxxwwwvvvuuutttsssrrrrqqqpppooonnnnmmmllllkkkjjjjiiiihhhhgggggffffeeeeeedddddcccccccbbbbbbbbaaaaaaaaaaaaa--------------
(PID.TID 0000.0001) //    114 +..+zzyyyxxxwwwvvvuuutttssssrrrqqqpppooonnnnmmmllllkkkjjjjiiiihhhhgggggfffffeeeeeddddddccccccbbbbbbbbbaaaaaaaaaaaaa-------------
(PID.TID 0000.0001) //    113 +..+zzyyyxxxwwwvvvuuutttssssrrrqqqpppooonnnnmmmllllkkkkjjjiiiihhhhhggggfffffeeeeeddddddcccccccbbbbbbbbaaaaaaaaaaaaaa------------
(PID.TID 0000.0001) //    112 +..+zzyyyxxxwwwvvvuuuttttsssrrrqqqpppoooonnnmmmllllkkkkjjjjiiiihhhhggggfffffeeeeeddddddcccccccbbbbbbbbbaaaaaaaaaaaaaa-----------
(PID.TID 0000.0001) //    111 +..+zzyyyxxxwwwvvvuuuutttsssrrrqqqpppoooonnnmmmmlllkkkkjjjjiiiihhhhggggfffffeeeeeedddddcccccccbbbbbbbbbaaaaaaaaaaaaaaaa---------
(PID.TID 0000.0001) //    110 +..+zzyyyxxxwwwvvvuuuutttsssrrrqqqpppoooonnnmmmmlllkkkkjjjjiiiihhhhgggggfffffeeeeeddddddcccccccbbbbbbbbbaaaaaaaaaaaaaaaaa-------
(PID.TID 0000.0001) //    109 +..+zzzyyxxxwwwwvvvuuutttsssrrrqqqpppoooonnnmmmmlllkkkkjjjjiiiihhhhgggggfffffeeeeeddddddcccccccbbbbbbbbbaaaaaaaaaaaaaaaaaaaaaaaa
(PID.TID 0000.0001) //    108 +..+zzzyyyxxxwwwvvvuuutttsssrrrqqqppppooonnnmmmmllllkkkjjjjiiiihhhhhggggfffffeeeeedddddddcccccccbbbbbbbbbaaaaaaaaaaaaaaaaaaaaaaa
(PID.TID 0000.0001) //    107 +..+zzzyyyxxxwwwvvvuuutttsssrrrqqqppppooonnnmmmmllllkkkjjjjiiiihhhhhggggfffffeeeeeeddddddcccccccbbbbbbbbbbaaaaaaaaaaaaaaaaaaaaaa
(PID.TID 0000.0001) //    106 +..+zzzyyyxxxwwwvvvuuutttsssrrrqqqppppooonnnnmmmllllkkkkjjjjiiiihhhhgggggfffffeeeeeddddddccccccccbbbbbbbbbbaaaaaaaaaaaaaaaaaaaaa
(PID.TID 0000.0001) //    105 +..+zzzyyyxxxwwwvvvuuutttsssrrrqqqqpppooonnnnmmmllllkkkkjjjjiiiihhhhgggggfffffeeeeeeddddddccccccccbbbbbbbbbbaaaaaaaaaaaaaaaaaaaa
(PID.TID 0000.0001) //    104 +..+zzzyyyxxxwwwvvvuuutttsssrrrqqqqpppooonnnnmmmmlllkkkkjjjjiiiihhhhhggggfffffeeeeeedddddddcccccccbbbbbbbbbbbaaaaaaaaaaaaaaaaaaa
(PID.TID 0000.0001) //    103 +..+zzzyyyxxxwwwvvvuuutttsssrrrrqqqpppoooonnnmmmmlllkkkkjjjjiiiihhhhhgggggfffffeeeeeeddddddccccccccbbbbbbbbbbbaaaaaaaaaaaaaaaaaa
(PID.TID 0000.0001) //    102 +..+zzzyyyxxxwwwvvvuuutttsssrrrrqqqpppoooonnnmmmmllllkkkkjjjjiiiihhhhgggggfffffeeeeeedddddddccccccccbbbbbbbbbbbbaaaaaaaaaaaaaaaa
(PID.TID 0000.0001) //    101 +..+zzzyyyxxxwwwvvvuuutttssssrrrqqqpppoooonnnmmmmllllkkkkjjjjiiiihhhhhggggffffffeeeeeeddddddcccccccccbbbbbbbbbbbbbaaaaaaaaaaaaaa
(PID.TID 0000.0001) //    100 +..+zzzyyyxxxwwwvvvuuutttssssrrrqqqppppooonnnnmmmllllkkkkjjjjiiiihhhhhgggggfffffeeeeeedddddddcccccccccbbbbbbbbbbbbbbaaaaaaaaaaaa
(PID.TID 0000.0001) //     99 +..+zzzyyyxxxwwwvvvuuutttssssrrrqqqppppooonnnnmmmmlllkkkkjjjjiiiiihhhhgggggffffffeeeeeedddddddcccccccccbbbbbbbbbbbbbbbbaaaaaaaaa
(PID.TID 0000.0001) //     98 +..+zzzyyyxxxwwwvvvuuuttttsssrrrqqqqpppooonnnnmmmmllllkkkkjjjjiiiihhhhhgggggfffffeeeeeeddddddddcccccccccbbbbbbbbbbbbbbbbbbbbbbbb
(PID.TID 0000.0001) //     97 +..+zzzyyyxxxwwwvvvuuuttttsssrrrqqqqpppoooonnnmmmmllllkkkkjjjjiiiihhhhhgggggffffffeeeeeedddddddccccccccccbbbbbbbbbbbbbbbbbbbbbbb
(PID.TID 0000.0001) //     96 +..+zzzyyyxxxwwwvvvuuuutttsssrrrqqqqpppoooonnnnmmmllllkkkkjjjjiiiiihhhhhgggggfffffeeeeeeedddddddcccccccccccbbbbbbbbbbbbbbbbbbbbb
(PID.TID 0000.0001) //     95 +..+zzzyyyxxxwwwvvvuuuutttsssrrrrqqqppppooonnnnmmmmlllkkkkkjjjjiiiihhhhhgggggffffffeeeeeeedddddddcccccccccccbbbbbbbbbbbbbbbbbbbb
(PID.TID 0000.0001) //     94 +..+zzzyyyxxxwwwvvvvuuutttsssrrrrqqqppppooonnnnmmmmllllkkkkjjjjiiiiihhhhhgggggffffffeeeeeeddddddddccccccccccccbbbbbbbbbbbbbbbbbb
(PID.TID 0000.0001) //     93 +..+zzzyyyxxxwwwvvvvuuutttssssrrrqqqppppoooonnnmmmmllllkkkkjjjjjiiiihhhhhgggggffffffeeeeeeedddddddddccccccccccccbbbbbbbbbbbbbbbb
(PID.TID 0000.0001) //     92 +..+zzzyyyxxxwwwvvvvuuutttssssrrrqqqqpppoooonnnnmmmllllkkkkkjjjjiiiiihhhhhgggggffffffeeeeeeedddddddddccccccccccccccbbbbbbbbbbbbb
(PID.TID 0000.0001) //     91 +..+zzzyyyxxxwwwwvvvuuutttssssrrrqqqqpppoooonnnnmmmmllllkkkkjjjjiiiiihhhhhggggggffffffeeeeeeedddddddddcccccccccccccccccbbbbbbbbb
(PID.TID 0000.0001) //     90 +..+zzzyyyxxxwwwwvvvuuuttttsssrrrrqqqppppooonnnnmmmmllllkkkkjjjjjiiiiihhhhhgggggfffffffeeeeeeeddddddddddcccccccccccccccccccccccc
(PID.TID 0000.0001) //     89 +..+zzzyyyxxxwwwwvvvuuuttttsssrrrrqqqppppoooonnnmmmmlllllkkkkjjjjiiiiihhhhhggggggfffffffeeeeeeedddddddddddcccccccccccccccccccccc
(PID.TID 0000.0001) //     88 +..+zzzyyyxxxxwwwvvvuuuutttsssrrrrqqqqpppoooonnnnmmmmllllkkkkjjjjjiiiiihhhhhggggggfffffffeeeeeeeeddddddddddccccccccccccccccccccc
(PID.TID 0000.0001) //     87 +..+zzzyyyxxxxwwwvvvuuuutttssssrrrqqqqpppoooonnnnmmmmllllkkkkkjjjjiiiiihhhhhhggggggfffffffeeeeeeeeddddddddddddcccccccccccccccccc
(PID.TID 0000.0001) //     86 +..+zzzyyyxxxxwwwvvvuuuutttssssrrrqqqqppppoooonnnnmmmmllllkkkkjjjjjiiiiihhhhhhggggggfffffffeeeeeeeedddddddddddddcccccccccccccccc
(PID.TID 0000.0001) //     85 +..+zzzyyyxxxxwwwvvvvuuutttssssrrrrqqqppppoooonnnnmmmmllllkkkkkjjjjjiiiiihhhhhgggggggfffffffeeeeeeeeedddddddddddddddcccccccccccc
(PID.TID 0000.0001) //     84 +..+zzzyyyxxxxwwwvvvvuuuttttsssrrrrqqqqpppoooonnnnmmmmlllllkkkkjjjjjiiiiihhhhhhgggggggfffffffeeeeeeeeeedddddddddddddddddddcccccc
(PID.TID 0000.0001) //     83 +..+zzzyyyxxxxwwwvvvvuuuttttsssrrrrqqqqppppoooonnnnmmmmllllkkkkkjjjjjiiiiihhhhhhgggggggfffffffeeeeeeeeeeeddddddddddddddddddddddd
(PID.TID 0000.0001) //     82 +..+zzzyyyyxxxwwwvvvvuuuttttssssrrrqqqqppppoooonnnnmmmmlllllkkkkkjjjjjiiiiihhhhhhgggggggffffffffeeeeeeeeeeeddddddddddddddddddddd
(PID.TID 0000.0001) //     81 +..+zzzyyyyxxxwwwwvvvuuuutttssssrrrrqqqppppoooonnnnnmmmmllllkkkkkjjjjjiiiiiihhhhhhgggggggffffffffeeeeeeeeeeeeddddddddddddddddddd
(PID.TID 0000.0001) //     80 +..+zzzyyyyxxxwwwwvvvuuuutttssssrrrrqqqqppppoooonnnnmmmmlllllkkkkkjjjjjiiiiiihhhhhhgggggggfffffffffeeeeeeeeeeeeeeddddddddddddddd
(PID.TID 0000.0001) //     79 +..+zzzyyyyxxxwwwwvvvuuuuttttsssrrrrqqqqppppoooonnnnmmmmmlllllkkkkjjjjjjiiiiiihhhhhhgggggggffffffffffeeeeeeeeeeeeeeeeddddddddddd
(PID.TID 0000.0001) //     78 +..+zzzyyyyxxxwwwwvvvvuuuttttssssrrrrqqqppppooooonnnnmmmmlllllkkkkkjjjjjjiiiiihhhhhhhggggggggffffffffffeeeeeeeeeeeeeeeeeeeeeeeee
(PID.TID 0000.0001) //     77 +..+zzzyyyyxxxwwwwvvvvuuuttttssssrrrrqqqqppppoooonnnnmmmmmlllllkkkkkjjjjjiiiiiihhhhhhhggggggggfffffffffffeeeeeeeeeeeeeeeeeeeeeee
(PID.TID 0000.0001) //     76 +..+zzzyyyyxxxxwwwvvvvuuuutttssssrrrrqqqqppppooooonnnnmmmmmlllllkkkkkjjjjjiiiiiiihhhhhhhggggggggffffffffffffeeeeeeeeeeeeeeeeeeee
(PID.TID 0000.0001) //     75 +..+zzzyyyyxxxxwwwvvvvuuuuttttssssrrrrqqqqppppoooonnnnnmmmmlllllkkkkkkjjjjjiiiiiiihhhhhhhgggggggggffffffffffffffeeeeeeeeeeeeeeee
(PID.TID 0000.0001) //     74 +..+zzzzyyyxxxxwwwwvvvuuuuttttssssrrrrqqqqppppooooonnnnmmmmmlllllkkkkkjjjjjjiiiiiiihhhhhhhggggggggggffffffffffffffffeeeeeeeeeeee
(PID.TID 0000.0001) //     73 +..+zzzzyyyxxxxwwwwvvvuuuuttttssssrrrrqqqqpppppoooonnnnnmmmmmlllllkkkkkjjjjjjiiiiiiihhhhhhhhggggggggggffffffffffffffffffffffffff
(PID.TID 0000.0001) //     72 +..+zzzzyyyxxxxwwwwvvvvuuuuttttssssrrrrqqqqppppooooonnnnmmmmmllllllkkkkkjjjjjjiiiiiiihhhhhhhhhgggggggggggfffffffffffffffffffffff
(PID.TID 0000.0001) //     71 +..+zzzzyyyxxxxwwwwvvvvuuuuttttssssrrrrqqqqpppppoooonnnnnmmmmmlllllkkkkkkjjjjjjjiiiiiiihhhhhhhhhggggggggggggffffffffffffffffffff
(PID.TID 0000.0001) //     70 +..+zzzzyyyyxxxwwwwvvvvuuuuttttssssrrrrqqqqqppppooooonnnnnmmmmmlllllkkkkkkjjjjjjjiiiiiiihhhhhhhhhhggggggggggggggffffffffffffffff
(PID.TID 0000.0001) //     69 +..+zzzzyyyyxxxxwwwvvvvuuuuttttsssssrrrrqqqqpppppooooonnnnmmmmmmlllllkkkkkkjjjjjjjiiiiiiiihhhhhhhhhhggggggggggggggggggffffffffff
(PID.TID 0000.0001) //     68 +..+zzzzyyyyxxxxwwwwvvvvuuuuttttssssrrrrqqqqqppppooooonnnnnmmmmmmlllllkkkkkkkjjjjjjjiiiiiiiihhhhhhhhhhhggggggggggggggggggggggggg
(PID.TID 0000.0001) //     67 +..+zzzzyyyyxxxxwwwwvvvvuuuuttttssssrrrrrqqqqpppppooooonnnnnmmmmmllllllkkkkkkkjjjjjjjiiiiiiiiihhhhhhhhhhhhgggggggggggggggggggggg
(PID.TID 0000.0001) //     66 +..+zzzzyyyyxxxxwwwwvvvvuuuutttttssssrrrrqqqqqpppppooooonnnnnmmmmmllllllkkkkkkkjjjjjjjjiiiiiiiiihhhhhhhhhhhhhhgggggggggggggggggg
(PID.TID 0000.0001) //     65 +..+zzzzyyyyxxxxwwwwvvvvuuuuuttttssssrrrrrqqqqpppppooooonnnnnnmmmmmlllllllkkkkkkjjjjjjjjiiiiiiiiiihhhhhhhhhhhhhhhhhggggggggggggg
(PID.TID 0000.0001) //     64 +..+zzzzyyyyxxxxwwwwvvvvvuuuuttttsssssrrrrqqqqqpppppooooonnnnnnmmmmmlllllllkkkkkkkjjjjjjjjiiiiiiiiiiihhhhhhhhhhhhhhhhhhhhhhhhhhh
(PID.TID 0000.0001) //     63 +..+zzzzyyyyxxxxwwwwwvvvvuuuutttttssssrrrrrqqqqqpppppooooonnnnnnmmmmmmllllllkkkkkkkkjjjjjjjjiiiiiiiiiiiihhhhhhhhhhhhhhhhhhhhhhhh
(PID.TID 0000.0001) //     62 +..+zzzzyyyyxxxxxwwwwvvvvuuuuuttttsssssrrrrqqqqqpppppoooooonnnnnnmmmmmmlllllllkkkkkkkjjjjjjjjjjiiiiiiiiiiiiihhhhhhhhhhhhhhhhhhhh
(PID.TID 0000.0001) //     61 +..+zzzzyyyyyxxxxwwwwvvvvvuuuutttttssssrrrrrqqqqqpppppoooooonnnnnnmmmmmmlllllllkkkkkkkkjjjjjjjjjjiiiiiiiiiiiiiiiiihhhhhhhhhhhhhh
(PID.TID 0000.0001) //     60 +..+zzzzyyyyyxxxxwwwwvvvvvuuuutttttsssssrrrrrqqqqqpppppoooooonnnnnnmmmmmmllllllllkkkkkkkkjjjjjjjjjjjiiiiiiiiiiiiiiiiiiiiiiiiiiii
(PID.TID 0000.0001) //     59 +..+zzzzzyyyyxxxxwwwwwvvvvuuuuutttttssssrrrrrqqqqqppppppoooooonnnnnnmmmmmmmlllllllkkkkkkkkkjjjjjjjjjjjjjiiiiiiiiiiiiiiiiiiiiiiii
(PID.TID 0000.0001) //     58 +..+zzzzzyyyyxxxxxwwwwvvvvvuuuutttttsssssrrrrrqqqqqppppppoooooonnnnnnmmmmmmmllllllllkkkkkkkkkkjjjjjjjjjjjjjjiiiiiiiiiiiiiiiiiiii
(PID.TID 0000.0001) //     57 +..+zzzzzyyyyxxxxxwwwwvvvvvuuuuutttttsssssrrrrrqqqqqppppppoooooonnnnnnmmmmmmmmllllllllkkkkkkkkkkkjjjjjjjjjjjjjjjjjiiiiiiiiiiiiii
(PID.TID 0000.0001) //     56 +..+zzzzzyyyyxxxxxwwwwwvvvvuuuuutttttsssssrrrrrqqqqqqppppppoooooonnnnnnnmmmmmmmlllllllllkkkkkkkkkkkkjjjjjjjjjjjjjjjjjjjjjjjjjjjj
(PID.TID 0000.0001) //     55 +..+zzzzzyyyyyxxxxwwwwwvvvvvuuuuutttttsssssrrrrrqqqqqqppppppoooooonnnnnnnmmmmmmmmllllllllllkkkkkkkkkkkkkjjjjjjjjjjjjjjjjjjjjjjjj
(PID.TID 0000.0001) //     54 +..+zzzzzyyyyyxxxxwwwwwvvvvvuuuuutttttssssssrrrrrqqqqqqppppppooooooonnnnnnnmmmmmmmmllllllllllkkkkkkkkkkkkkkkjjjjjjjjjjjjjjjjjjjj
(PID.TID 0000.0001) //     53 +..+zzzzzyyyyyxxxxxwwwwwvvvvvuuuuutttttsssssrrrrrrqqqqqqppppppooooooonnnnnnnnmmmmmmmmlllllllllllkkkkkkkkkkkkkkkkkkkjjjjjjjjjjjjj
(PID.TID 0000.0001) //     52 +..+zzzzzyyyyyxxxxxwwwwwvvvvvuuuuuttttttsssssrrrrrrqqqqqqppppppoooooooonnnnnnnmmmmmmmmmmllllllllllllkkkkkkkkkkkkkkkkkkkkkkkkkkkk
(PID.TID 0000.0001) //     51 +..+zzzzzyyyyyxxxxxwwwwwvvvvvvuuuuutttttssssssrrrrrrqqqqqqpppppppooooooonnnnnnnnmmmmmmmmmmllllllllllllllkkkkkkkkkkkkkkkkkkkkkkkk
(PID.TID 0000.0001) //     50 +..++zzzzzyyyyyxxxxxwwwwwvvvvvuuuuuttttttssssssrrrrrrqqqqqqpppppppoooooooonnnnnnnnnmmmmmmmmmmlllllllllllllllllkkkkkkkkkkkkkkkkkk
(PID.TID 0000.0001) //     49 +..++zzzzzyyyyyxxxxxwwwwwvvvvvvuuuuuttttttssssssrrrrrrqqqqqqppppppppoooooooonnnnnnnnnmmmmmmmmmmmmllllllllllllllllllllllkkkkkkkkk
(PID.TID 0000.0001) //     48 +..++zzzzzyyyyyxxxxxwwwwwwvvvvvuuuuuuttttttssssssrrrrrrqqqqqqqpppppppooooooooonnnnnnnnnnmmmmmmmmmmmmmlllllllllllllllllllllllllll
(PID.TID 0000.0001) //     47 +..++zzzzzyyyyyxxxxxxwwwwwvvvvvvuuuuuttttttsssssssrrrrrrqqqqqqqppppppppooooooooonnnnnnnnnnmmmmmmmmmmmmmmmmllllllllllllllllllllll
(PID.TID 0000.0001) //     46 +..++zzzzzyyyyyyxxxxxwwwwwwvvvvvuuuuuuttttttsssssssrrrrrrqqqqqqqqppppppppooooooooonnnnnnnnnnnnmmmmmmmmmmmmmmmmmmmlllllllllllllll
(PID.TID 0000.0001) //     45 +..++zzzzzyyyyyyxxxxxwwwwwwvvvvvvuuuuuuttttttsssssssrrrrrrrqqqqqqqpppppppppoooooooooonnnnnnnnnnnnnmmmmmmmmmmmmmmmmmmmmmmmmmmmmmm
(PID.TID 0000.0001) //     44 +..++zzzzzyyyyyyxxxxxxwwwwwwvvvvvvuuuuuuttttttsssssssrrrrrrrqqqqqqqqpppppppppooooooooooonnnnnnnnnnnnnnmmmmmmmmmmmmmmmmmmmmmmmmmm
(PID.TID 0000.0001) //     43 +..++zzzzzzyyyyyxxxxxxwwwwwwvvvvvvuuuuuuuttttttsssssssrrrrrrrrqqqqqqqqpppppppppoooooooooooonnnnnnnnnnnnnnnnnmmmmmmmmmmmmmmmmmmmm
(PID.TID 0000.0001) //     42 +..++zzzzzzyyyyyyxxxxxxwwwwwwvvvvvvuuuuuuuttttttssssssssrrrrrrrqqqqqqqqqppppppppppooooooooooooonnnnnnnnnnnnnnnnnnnnnnnnnmmmmmmmm
(PID.TID 0000.0001) //     41 +..++zzzzzzyyyyyyxxxxxxwwwwwwvvvvvvvuuuuuuutttttttsssssssrrrrrrrrqqqqqqqqqpppppppppppoooooooooooooonnnnnnnnnnnnnnnnnnnnnnnnnnnnn
(PID.TID 0000.0001) //     40 +..++zzzzzzyyyyyyxxxxxxxwwwwwwvvvvvvvuuuuuuutttttttssssssssrrrrrrrrqqqqqqqqqqpppppppppppooooooooooooooooonnnnnnnnnnnnnnnnnnnnnnn
(PID.TID 0000.0001) //     39 +..++zzzzzzyyyyyyyxxxxxxwwwwwwwvvvvvvvuuuuuuutttttttssssssssrrrrrrrrrqqqqqqqqqqpppppppppppppoooooooooooooooooooooonnnnnnnnnnnnnn
(PID.TID 0000.0001) //     38 +..++zzzzzzzyyyyyyxxxxxxxwwwwwwvvvvvvvuuuuuuuuttttttttssssssssrrrrrrrrrqqqqqqqqqqqpppppppppppppppooooooooooooooooooooooooooooooo
(PID.TID 0000.0001) //     37 +..++zzzzzzzyyyyyyyxxxxxxwwwwwwwvvvvvvvuuuuuuuuttttttttsssssssssrrrrrrrrrrqqqqqqqqqqqqppppppppppppppppoooooooooooooooooooooooooo
(PID.TID 0000.0001) //     36 +..++zzzzzzzyyyyyyyxxxxxxxwwwwwwwvvvvvvvvuuuuuuutttttttttsssssssssrrrrrrrrrrrqqqqqqqqqqqqqppppppppppppppppppppoooooooooooooooooo
(PID.TID 0000.0001) //     35 +..+++zzzzzzyyyyyyyxxxxxxxxwwwwwwwvvvvvvvvuuuuuuuutttttttttsssssssssrrrrrrrrrrrrqqqqqqqqqqqqqqpppppppppppppppppppppppppppppppppp
(PID.TID 0000.0001) //     34 +..+++zzzzzzzyyyyyyyxxxxxxxwwwwwwwwvvvvvvvvuuuuuuuuttttttttttssssssssssrrrrrrrrrrrrqqqqqqqqqqqqqqqqqpppppppppppppppppppppppppppp
(PID.TID 0000.0001) //     33 +..+++zzzzzzzyyyyyyyxxxxxxxxwwwwwwwwvvvvvvvvuuuuuuuuuttttttttttsssssssssssrrrrrrrrrrrrrqqqqqqqqqqqqqqqqqqqqppppppppppppppppppppp
(PID.TID 0000.0001) //     32 +..+++zzzzzzzyyyyyyyyxxxxxxxxwwwwwwwwvvvvvvvvvuuuuuuuuuttttttttttssssssssssssrrrrrrrrrrrrrrrqqqqqqqqqqqqqqqqqqqqqqqqqqqqqqqqqqqq
(PID.TID 0000.0001) //     31 +..+++zzzzzzzzyyyyyyyyxxxxxxxxwwwwwwwwvvvvvvvvvuuuuuuuuuutttttttttttssssssssssssrrrrrrrrrrrrrrrrrqqqqqqqqqqqqqqqqqqqqqqqqqqqqqqq
(PID.TID 0000.0001) //     30 +..+++zzzzzzzzyyyyyyyyxxxxxxxxxwwwwwwwwvvvvvvvvvvuuuuuuuuuutttttttttttssssssssssssssrrrrrrrrrrrrrrrrrrrrrqqqqqqqqqqqqqqqqqqqqqqq
(PID.TID 0000.0001) //     29 +..+++zzzzzzzzzyyyyyyyyxxxxxxxxxwwwwwwwwwvvvvvvvvvvuuuuuuuuuutttttttttttttsssssssssssssssrrrrrrrrrrrrrrrrrrrrrrrrrrrrrrrqqqqqqqq
(PID.TID 0000.0001) //     28 +..+++zzzzzzzzzyyyyyyyyyxxxxxxxxxwwwwwwwwwvvvvvvvvvvvuuuuuuuuuuutttttttttttttssssssssssssssssssrrrrrrrrrrrrrrrrrrrrrrrrrrrrrrrrr
(PID.TID 0000.0001) //     27 +..++++zzzzzzzzyyyyyyyyyyxxxxxxxxxwwwwwwwwwwvvvvvvvvvvvuuuuuuuuuuuuttttttttttttttssssssssssssssssssssssrrrrrrrrrrrrrrrrrrrrrrrrr
(PID.TID 0000.0001) //     26 +..++++zzzzzzzzzyyyyyyyyyxxxxxxxxxxwwwwwwwwwwwvvvvvvvvvvvuuuuuuuuuuuuuttttttttttttttttssssssssssssssssssssssssssssssrrrrrrrrrrrr
(PID.TID 0000.0001) //     25 +..++++zzzzzzzzzzyyyyyyyyyxxxxxxxxxxxwwwwwwwwwwwvvvvvvvvvvvvuuuuuuuuuuuuuuttttttttttttttttttssssssssssssssssssssssssssssssssssss
(PID.TID 0000.0001) //     24 +..++++zzzzzzzzzzyyyyyyyyyyxxxxxxxxxxxwwwwwwwwwwwwvvvvvvvvvvvvvuuuuuuuuuuuuuuuttttttttttttttttttttttssssssssssssssssssssssssssss
(PID.TID 0000.0001) //     23 +..++++zzzzzzzzzzzyyyyyyyyyyyxxxxxxxxxxxwwwwwwwwwwwwvvvvvvvvvvvvvvuuuuuuuuuuuuuuuuutttttttttttttttttttttttttttttttssssssssssssss
(PID.TID 0000.0001) //     22 +..+++++zzzzzzzzzzzyyyyyyyyyyyxxxxxxxxxxxxwwwwwwwwwwwwwvvvvvvvvvvvvvvvuuuuuuuuuuuuuuuuuuuutttttttttttttttttttttttttttttttttttttt
(PID.TID 0000.0001) //     21 +..+++++zzzzzzzzzzzyyyyyyyyyyyyxxxxxxxxxxxxxwwwwwwwwwwwwwwvvvvvvvvvvvvvvvvuuuuuuuuuuuuuuuuuuuuuuuutttttttttttttttttttttttttttttt
(PID.TID 0000.0001) //     20 +..+++++zzzzzzzzzzzzyyyyyyyyyyyyyxxxxxxxxxxxxxwwwwwwwwwwwwwwwvvvvvvvvvvvvvvvvvvvuuuuuuuuuuuuuuuuuuuuuuuuuuuuuuuuuttttttttttttttt
(PID.TID 0000.0001) //     19 +..+++++zzzzzzzzzzzzzyyyyyyyyyyyyyxxxxxxxxxxxxxxxwwwwwwwwwwwwwwwwvvvvvvvvvvvvvvvvvvvvvvuuuuuuuuuuuuuuuuuuuuuuuuuuuuuuuuuuuuuuuuu
(PID.TID 0000.0001) //     18 +..++++++zzzzzzzzzzzzzyyyyyyyyyyyyyyxxxxxxxxxxxxxxxxwwwwwwwwwwwwwwwwwwvvvvvvvvvvvvvvvvvvvvvvvvvvuuuuuuuuuuuuuuuuuuuuuuuuuuuuuuuu
(PID.TID 0000.0001) //     17 +..++++++zzzzzzzzzzzzzzzyyyyyyyyyyyyyyyxxxxxxxxxxxxxxxxwwwwwwwwwwwwwwwwwwwwwvvvvvvvvvvvvvvvvvvvvvvvvvvvvvvvvvvvuuuuuuuuuuuuuuuuu
(PID.TID 0000.0001) //     16 +..+++++++zzzzzzzzzzzzzzzyyyyyyyyyyyyyyyyxxxxxxxxxxxxxxxxxxxwwwwwwwwwwwwwwwwwwwwwwwvvvvvvvvvvvvvvvvvvvvvvvvvvvvvvvvvvvvvvvvvvvvv
(PID.TID 0000.0001) //     15 +..+++++++zzzzzzzzzzzzzzzzzyyyyyyyyyyyyyyyyyxxxxxxxxxxxxxxxxxxxxwwwwwwwwwwwwwwwwwwwwwwwwwwwwwvvvvvvvvvvvvvvvvvvvvvvvvvvvvvvvvvvv
(PID.TID 0000.0001) //     14 +..++++++++zzzzzzzzzzzzzzzzzyyyyyyyyyyyyyyyyyyyyxxxxxxxxxxxxxxxxxxxxxxxwwwwwwwwwwwwwwwwwwwwwwwwwwwwwwwwwwwwwwwwvvvvvvvvvvvvvvvvv
(PID.TID 0000.0001) //     13 +..++++++++zzzzzzzzzzzzzzzzzzzzyyyyyyyyyyyyyyyyyyyyyxxxxxxxxxxxxxxxxxxxxxxxxxxwwwwwwwwwwwwwwwwwwwwwwwwwwwwwwwwwwwwwwwwwwwwwwwwww
(PID.TID 0000.0001) //     12 +..+++++++++zzzzzzzzzzzzzzzzzzzzzyyyyyyyyyyyyyyyyyyyyyyyyxxxxxxxxxxxxxxxxxxxxxxxxxxxxxxxxxwwwwwwwwwwwwwwwwwwwwwwwwwwwwwwwwwwwwww
(PID.TID 0000.0001) //     11 +..++++++++++zzzzzzzzzzzzzzzzzzzzzzzyyyyyyyyyyyyyyyyyyyyyyyyyyyxxxxxxxxxxxxxxxxxxxxxxxxxxxxxxxxxxxxxxxxxxxxxxxwwwwwwwwwwwwwwwwww
(PID.TID 0000.0001) //     10 +..+++++++++++zzzzzzzzzzzzzzzzzzzzzzzzzzyyyyyyyyyyyyyyyyyyyyyyyyyyyyyyyyxxxxxxxxxxxxxxxxxxxxxxxxxxxxxxxxxxxxxxxxxxxxxxxxxxxxxxxx
(PID.TID 0000.0001) //      9 +..+++++++++++++zzzzzzzzzzzzzzzzzzzzzzzzzzzzzyyyyyyyyyyyyyyyyyyyyyyyyyyyyyyyyyyyyyyyxxxxxxxxxxxxxxxxxxxxxxxxxxxxxxxxxxxxxxxxxxxx
(PID.TID 0000.0001) //      8 +..+++++++++++++++zzzzzzzzzzzzzzzzzzzzzzzzzzzzzzzzzzyyyyyyyyyyyyyyyyyyyyyyyyyyyyyyyyyyyyyyyyyyyyyyyyyyyyyyyyyyxxxxxxxxxxxxxxxxxx
(PID.TID 0000.0001) //      7 +..+++++++++++++++++zzzzzzzzzzzzzzzzzzzzzzzzzzzzzzzzzzzzzzzzzyyyyyyyyyyyyyyyyyyyyyyyyyyyyyyyyyyyyyyyyyyyyyyyyyyyyyyyyyyyyyyyyyyy
(PID.TID 0000.0001) //      6 +..+++++++++++++++++++++zzzzzzzzzzzzzzzzzzzzzzzzzzzzzzzzzzzzzzzzzzzzzzzzzzzzyyyyyyyyyyyyyyyyyyyyyyyyyyyyyyyyyyyyyyyyyyyyyyyyyyyy
(PID.TID 0000.0001) //      5 +..++++++++++++++++++++++++++zzzzzzzzzzzzzzzzzzzzzzzzzzzzzzzzzzzzzzzzzzzzzzzzzzzzzzzzzzzzzzzzzzzzzzzzzzzzzzzzzzyyyyyyyyyyyyyyyyy
(PID.TID 0000.0001) //      4 +..++++++++++++++++++++++++++++++++++zzzzzzzzzzzzzzzzzzzzzzzzzzzzzzzzzzzzzzzzzzzzzzzzzzzzzzzzzzzzzzzzzzzzzzzzzzzzzzzzzzzzzzzzzzz
(PID.TID 0000.0001) //      3 +..+++++++++++++++++++++++++++++++++++++++++++++++++zzzzzzzzzzzzzzzzzzzzzzzzzzzzzzzzzzzzzzzzzzzzzzzzzzzzzzzzzzzzzzzzzzzzzzzzzzzz
(PID.TID 0000.0001) //      2 +..++++++++++++++++++++++++++++++++++++++++++++++++++++++++++++++++++++++++++++++++++++++++++++++++++++++++++++++++++zzzzzzzzzzz
(PID.TID 0000.0001) //      1 ................................................................................................................................
(PID.TID 0000.0001) //      0 ................................................................................................................................
(PID.TID 0000.0001) //     -1 +..++++++++++++++++++++++++++++++++++++++++++++++++++++++++++++++++++++++++++++++++++++++++++++++++++++++++++++++++++zzzzzzzzzzz
(PID.TID 0000.0001) // =======================================================
(PID.TID 0000.0001) // END OF FIELD                                          =
(PID.TID 0000.0001) // =======================================================
(PID.TID 0000.0001) 
(PID.TID 0000.0001) // =======================================================
(PID.TID 0000.0001) // Field hFacW at iteration          0
(PID.TID 0000.0001) // CMIN =          9.000040039062500E-01
(PID.TID 0000.0001) // CMAX =          9.999398437500000E-01
(PID.TID 0000.0001) // CINT =          3.701327401620370E-03
(PID.TID 0000.0001) // SYMBOLS (CMIN->CMAX): -abcdefghijklmnopqrstuvwxyz+
(PID.TID 0000.0001) //                  0.0: .
(PID.TID 0000.0001) // RANGE I (Lo:Hi:Step):(    -1:   126:     1)
(PID.TID 0000.0001) // RANGE J (Lo:Hi:Step):(   126:    -1:    -1)
(PID.TID 0000.0001) // RANGE K (Lo:Hi:Step):(   1:   1:   1)
(PID.TID 0000.0001) // =======================================================
(PID.TID 0000.0001) K =   1
(PID.TID 0000.0001) //                I=8       I=18      I=28      I=38      I=48      I=58      I=68      I=78      I=88      I=98      I=108     I=118
(PID.TID 0000.0001) // |--J--|101234567|901234567|901234567|901234567|901234567|901234567|901234567|901234567|901234567|901234567|901234567|901234567|90123456
(PID.TID 0000.0001) //    126 z...zzyyyxxxwwwvvvuuutttsssrrrqqqqpppooonnnmmmmlllkkkkjjjjiiiihhhhggggfffffeeeeedddddcccccccbbbbbbbbaaaaaaaaaaa-----------------
(PID.TID 0000.0001) //    125 z...zzyyyxxxwwwvvvuuutttsssrrrqqqqpppooonnnmmmmlllkkkkjjjjiiiihhhhggggfffffeeeeedddddcccccccbbbbbbbbaaaaaaaaaaa-----------------
(PID.TID 0000.0001) //    124 z...zzyyyxxxwwwvvvuuutttsssrrrqqqqpppooonnnmmmmlllkkkkjjjjiiiihhhhggggfffffeeeeedddddcccccccbbbbbbbbaaaaaaaaaaa-----------------
(PID.TID 0000.0001) //    123 z...zzyyyxxxwwwvvvuuutttsssrrrqqqqpppooonnnmmmmlllkkkkjjjjiiiihhhhggggfffffeeeeedddddcccccccbbbbbbbbaaaaaaaaaaa-----------------
(PID.TID 0000.0001) //    122 z...zzyyyxxxwwwvvvuuutttsssrrrqqqqpppooonnnmmmmlllkkkkjjjjiiiihhhhggggfffffeeeeedddddcccccccbbbbbbbbaaaaaaaaaaa-----------------
(PID.TID 0000.0001) //    121 z...zzyyyxxxwwwvvvuuutttsssrrrqqqqpppooonnnmmmmlllkkkkjjjjiiiihhhhggggfffffeeeeeddddddccccccbbbbbbbbaaaaaaaaaaa-----------------
(PID.TID 0000.0001) //    120 z...zzyyyxxxwwwvvvuuutttsssrrrqqqqpppooonnnmmmmlllkkkkjjjjiiiihhhhggggfffffeeeeeddddddccccccbbbbbbbbaaaaaaaaaaa-----------------
(PID.TID 0000.0001) //    119 z...zzyyyxxxwwwvvvuuutttsssrrrqqqqpppooonnnmmmmlllkkkkjjjjiiiihhhhggggfffffeeeeeddddddccccccbbbbbbbbaaaaaaaaaaaa----------------
(PID.TID 0000.0001) //    118 z...zzyyyxxxwwwvvvuuutttsssrrrrqqqpppooonnnnmmmlllkkkkjjjjiiiihhhhggggfffffeeeeeddddddccccccbbbbbbbbaaaaaaaaaaaa----------------
(PID.TID 0000.0001) //    117 z...zzyyyxxxwwwvvvuuutttsssrrrrqqqpppooonnnnmmmllllkkkjjjjiiiihhhhggggfffffeeeeeddddddcccccccbbbbbbbbaaaaaaaaaaaa---------------
(PID.TID 0000.0001) //    116 z...zzyyyxxxwwwvvvuuutttsssrrrrqqqpppooonnnnmmmllllkkkjjjjiiiihhhhgggggffffeeeeeddddddcccccccbbbbbbbbaaaaaaaaaaaa---------------
(PID.TID 0000.0001) //    115 z...zzyyyxxxwwwvvvuuutttssssrrrqqqpppooonnnnmmmllllkkkjjjjiiiihhhhgggggffffeeeeeedddddcccccccbbbbbbbbaaaaaaaaaaaaa--------------
(PID.TID 0000.0001) //    114 z...zzyyyxxxwwwvvvuuutttssssrrrqqqpppooonnnnmmmllllkkkjjjjiiiihhhhgggggfffffeeeeeddddddccccccbbbbbbbbbaaaaaaaaaaaaa-------------
(PID.TID 0000.0001) //    113 z...zzyyyxxxwwwvvvuuutttssssrrrqqqpppooonnnnmmmllllkkkkjjjiiiihhhhhggggfffffeeeeeddddddcccccccbbbbbbbbaaaaaaaaaaaaaa------------
(PID.TID 0000.0001) //    112 z...zzyyyxxxwwwvvvuuuttttsssrrrqqqpppoooonnnmmmllllkkkkjjjjiiiihhhhggggfffffeeeeeddddddcccccccbbbbbbbbbaaaaaaaaaaaaaa-----------
(PID.TID 0000.0001) //    111 z...zzyyyxxxwwwvvvuuuutttsssrrrqqqpppoooonnnmmmmlllkkkkjjjjiiiihhhhggggfffffeeeeeedddddcccccccbbbbbbbbbaaaaaaaaaaaaaaaa---------
(PID.TID 0000.0001) //    110 z...zzzyyxxxwwwvvvvuuutttsssrrrqqqpppoooonnnmmmmlllkkkkjjjjiiiihhhhgggggfffffeeeeeddddddcccccccbbbbbbbbbaaaaaaaaaaaaaaaaa-------
(PID.TID 0000.0001) //    109 z...zzzyyyxxxwwwvvvuuutttsssrrrqqqpppoooonnnmmmmlllkkkkjjjjiiiihhhhgggggfffffeeeeeddddddcccccccbbbbbbbbbaaaaaaaaaaaaaaaaaaaaaaaa
(PID.TID 0000.0001) //    108 z...zzzyyyxxxwwwvvvuuutttsssrrrqqqppppooonnnmmmmllllkkkjjjjiiiihhhhhggggfffffeeeeedddddddcccccccbbbbbbbbbaaaaaaaaaaaaaaaaaaaaaaa
(PID.TID 0000.0001) //    107 z...zzzyyyxxxwwwvvvuuutttsssrrrqqqppppooonnnnmmmllllkkkjjjjiiiihhhhhggggfffffeeeeeeddddddcccccccbbbbbbbbbbaaaaaaaaaaaaaaaaaaaaaa
(PID.TID 0000.0001) //    106 z...zzzyyyxxxwwwvvvuuutttsssrrrqqqqpppooonnnnmmmllllkkkkjjjjiiiihhhhgggggfffffeeeeeddddddccccccccbbbbbbbbbbaaaaaaaaaaaaaaaaaaaaa
(PID.TID 0000.0001) //    105 z...zzzyyyxxxwwwvvvuuutttsssrrrqqqqpppooonnnnmmmllllkkkkjjjjiiiihhhhgggggfffffeeeeeeddddddccccccccbbbbbbbbbbaaaaaaaaaaaaaaaaaaaa
(PID.TID 0000.0001) //    104 z...zzzyyyxxxwwwvvvuuutttsssrrrqqqqpppooonnnnmmmmlllkkkkjjjjiiiihhhhhggggfffffeeeeeedddddddcccccccbbbbbbbbbbbaaaaaaaaaaaaaaaaaaa
(PID.TID 0000.0001) //    103 z...zzzyyyxxxwwwvvvuuutttsssrrrrqqqpppoooonnnmmmmlllkkkkjjjjiiiiihhhhgggggfffffeeeeeeddddddccccccccbbbbbbbbbbbaaaaaaaaaaaaaaaaaa
(PID.TID 0000.0001) //    102 z...zzzyyyxxxwwwvvvuuutttsssrrrrqqqpppoooonnnmmmmllllkkkkjjjjiiiihhhhgggggfffffeeeeeedddddddccccccccbbbbbbbbbbbbaaaaaaaaaaaaaaaa
(PID.TID 0000.0001) //    101 z...zzzyyyxxxwwwvvvuuutttssssrrrqqqpppoooonnnmmmmllllkkkkjjjjiiiihhhhhggggffffffeeeeeeddddddcccccccccbbbbbbbbbbbbbaaaaaaaaaaaaaa
(PID.TID 0000.0001) //    100 z...zzzyyyxxxwwwvvvuuutttssssrrrqqqppppooonnnnmmmllllkkkkjjjjiiiihhhhhgggggfffffeeeeeedddddddcccccccccbbbbbbbbbbbbbbaaaaaaaaaaaa
(PID.TID 0000.0001) //     99 z...zzzyyyxxxwwwvvvuuuttttsssrrrqqqppppooonnnnmmmmlllkkkkjjjjiiiiihhhhgggggffffffeeeeeedddddddcccccccccbbbbbbbbbbbbbbbbaaaaaaaaa
(PID.TID 0000.0001) //     98 z...zzzyyyxxxwwwvvvuuuttttsssrrrqqqqpppooonnnnmmmmllllkkkkjjjjiiiihhhhhgggggfffffeeeeeeddddddddcccccccccbbbbbbbbbbbbbbbbbbbbbbbb
(PID.TID 0000.0001) //     97 z...zzzyyyxxxwwwvvvuuuttttsssrrrqqqqpppoooonnnmmmmllllkkkkjjjjiiiiihhhhgggggffffffeeeeeedddddddccccccccccbbbbbbbbbbbbbbbbbbbbbbb
(PID.TID 0000.0001) //     96 z...zzzyyyxxxwwwvvvuuuutttsssrrrqqqqpppoooonnnnmmmllllkkkkjjjjiiiiihhhhhgggggfffffeeeeeeedddddddcccccccccccbbbbbbbbbbbbbbbbbbbbb
(PID.TID 0000.0001) //     95 z...zzzyyyxxxwwwvvvuuuutttsssrrrrqqqppppooonnnnmmmmlllkkkkkjjjjiiiihhhhhgggggffffffeeeeeeedddddddcccccccccccbbbbbbbbbbbbbbbbbbbb
(PID.TID 0000.0001) //     94 z...zzzyyyxxxwwwvvvvuuutttsssrrrrqqqppppooonnnnmmmmllllkkkkjjjjiiiiihhhhhgggggffffffeeeeeeddddddddccccccccccccbbbbbbbbbbbbbbbbbb
(PID.TID 0000.0001) //     93 z...zzzyyyxxxwwwvvvvuuutttssssrrrqqqppppoooonnnmmmmllllkkkkjjjjjiiiihhhhhgggggffffffeeeeeeedddddddddccccccccccccbbbbbbbbbbbbbbbb
(PID.TID 0000.0001) //     92 z...zzzyyyxxxwwwvvvvuuutttssssrrrqqqqpppoooonnnnmmmllllkkkkkjjjjiiiiihhhhhgggggffffffeeeeeeedddddddddccccccccccccccbbbbbbbbbbbbb
(PID.TID 0000.0001) //     91 z...zzzyyyxxxwwwwvvvuuutttssssrrrqqqqpppoooonnnnmmmmllllkkkkjjjjiiiiihhhhhggggggffffffeeeeeeedddddddddcccccccccccccccccbbbbbbbbb
(PID.TID 0000.0001) //     90 z...zzzyyyxxxwwwwvvvuuuttttsssrrrrqqqppppooonnnnmmmmllllkkkkjjjjjiiiiihhhhhgggggfffffffeeeeeeeddddddddddcccccccccccccccccccccccc
(PID.TID 0000.0001) //     89 z...zzzyyyxxxwwwwvvvuuuttttsssrrrrqqqppppoooonnnmmmmlllllkkkkjjjjiiiiihhhhhggggggfffffffeeeeeeedddddddddddcccccccccccccccccccccc
(PID.TID 0000.0001) //     88 z...zzzyyyxxxxwwwvvvuuuutttsssrrrrqqqqpppoooonnnnmmmmllllkkkkjjjjjiiiiihhhhhggggggfffffffeeeeeeeeddddddddddccccccccccccccccccccc
(PID.TID 0000.0001) //     87 z...zzzyyyxxxxwwwvvvuuuutttssssrrrqqqqpppoooonnnnmmmmllllkkkkkjjjjiiiiihhhhhhggggggfffffffeeeeeeeeddddddddddddcccccccccccccccccc
(PID.TID 0000.0001) //     86 z...zzzyyyxxxxwwwvvvuuuutttssssrrrqqqqppppoooonnnnmmmmllllkkkkjjjjjiiiiihhhhhhggggggfffffffeeeeeeeedddddddddddddcccccccccccccccc
(PID.TID 0000.0001) //     85 z...zzzyyyxxxxwwwvvvvuuutttssssrrrrqqqppppoooonnnnmmmmllllkkkkkjjjjjiiiiihhhhhgggggggfffffffeeeeeeeeedddddddddddddddcccccccccccc
(PID.TID 0000.0001) //     84 z...zzzyyyxxxxwwwvvvvuuuttttsssrrrrqqqqpppoooonnnnmmmmlllllkkkkjjjjjiiiiihhhhhhgggggggfffffffeeeeeeeeeeddddddddddddddddddddccccc
(PID.TID 0000.0001) //     83 z...zzzyyyyxxxwwwvvvvuuuttttsssrrrrqqqqppppoooonnnnmmmmllllkkkkkjjjjjiiiiihhhhhhgggggggfffffffeeeeeeeeeeeddddddddddddddddddddddd
(PID.TID 0000.0001) //     82 z...zzzyyyyxxxwwwvvvvuuuttttssssrrrqqqqppppoooonnnnmmmmlllllkkkkkjjjjjiiiiihhhhhhgggggggffffffffeeeeeeeeeeeddddddddddddddddddddd
(PID.TID 0000.0001) //     81 z...zzzyyyyxxxwwwwvvvuuuutttssssrrrrqqqppppoooonnnnnmmmmllllkkkkkjjjjjiiiiiihhhhhhgggggggffffffffeeeeeeeeeeeeddddddddddddddddddd
(PID.TID 0000.0001) //     80 z...zzzyyyyxxxwwwwvvvuuuutttssssrrrrqqqqppppoooonnnnmmmmlllllkkkkkjjjjjiiiiiihhhhhhgggggggfffffffffeeeeeeeeeeeeeeddddddddddddddd
(PID.TID 0000.0001) //     79 z...zzzyyyyxxxwwwwvvvuuuuttttsssrrrrqqqqppppoooonnnnmmmmmlllllkkkkjjjjjjiiiiiihhhhhhgggggggffffffffffeeeeeeeeeeeeeeeeddddddddddd
(PID.TID 0000.0001) //     78 z...zzzyyyyxxxwwwwvvvvuuuttttssssrrrrqqqppppooooonnnnmmmmlllllkkkkkjjjjjjiiiiihhhhhhhggggggggffffffffffeeeeeeeeeeeeeeeeeeeeeeeee
(PID.TID 0000.0001) //     77 z...zzzyyyyxxxxwwwvvvvuuuttttssssrrrrqqqqppppoooonnnnmmmmmlllllkkkkkjjjjjiiiiiihhhhhhhggggggggfffffffffffeeeeeeeeeeeeeeeeeeeeeee
(PID.TID 0000.0001) //     76 z...zzzyyyyxxxxwwwvvvvuuuutttssssrrrrqqqqppppooooonnnnmmmmmlllllkkkkkjjjjjiiiiiiihhhhhhhggggggggffffffffffffeeeeeeeeeeeeeeeeeeee
(PID.TID 0000.0001) //     75 z...zzzyyyyxxxxwwwvvvvuuuuttttssssrrrrqqqqppppoooonnnnnmmmmlllllkkkkkkjjjjjiiiiiiihhhhhhhgggggggggffffffffffffffeeeeeeeeeeeeeeee
(PID.TID 0000.0001) //     74 z...zzzzyyyxxxxwwwwvvvuuuuttttssssrrrrqqqqppppooooonnnnmmmmmlllllkkkkkjjjjjjiiiiiiihhhhhhhggggggggggffffffffffffffffeeeeeeeeeeee
(PID.TID 0000.0001) //     73 z...zzzzyyyxxxxwwwwvvvvuuuttttssssrrrrqqqqpppppoooonnnnnmmmmmlllllkkkkkjjjjjjiiiiiiihhhhhhhhggggggggggffffffffffffffffffffffffff
(PID.TID 0000.0001) //     72 z...zzzzyyyxxxxwwwwvvvvuuuuttttssssrrrrqqqqppppooooonnnnmmmmmllllllkkkkkjjjjjjiiiiiiihhhhhhhhhgggggggggggfffffffffffffffffffffff
(PID.TID 0000.0001) //     71 z...zzzzyyyxxxxwwwwvvvvuuuuttttssssrrrrqqqqpppppoooonnnnnmmmmmlllllkkkkkkjjjjjjjiiiiiiihhhhhhhhhggggggggggggffffffffffffffffffff
(PID.TID 0000.0001) //     70 z...zzzzyyyyxxxwwwwvvvvuuuuttttssssrrrrqqqqqppppooooonnnnnmmmmmlllllkkkkkkjjjjjjjiiiiiiihhhhhhhhhhggggggggggggggffffffffffffffff
(PID.TID 0000.0001) //     69 z...zzzzyyyyxxxxwwwvvvvuuuuttttsssssrrrrqqqqpppppooooonnnnmmmmmmlllllkkkkkkjjjjjjjiiiiiiiihhhhhhhhhhggggggggggggggggggffffffffff
(PID.TID 0000.0001) //     68 z...zzzzyyyyxxxxwwwwvvvvuuuuttttssssrrrrqqqqqppppooooonnnnnmmmmmmlllllkkkkkkkjjjjjjjiiiiiiiihhhhhhhhhhhggggggggggggggggggggggggg
(PID.TID 0000.0001) //     67 z...zzzzyyyyxxxxwwwwvvvvuuuuttttssssrrrrrqqqqpppppooooonnnnnmmmmmllllllkkkkkkkjjjjjjjiiiiiiiiihhhhhhhhhhhhgggggggggggggggggggggg
(PID.TID 0000.0001) //     66 z...zzzzyyyyxxxxwwwwvvvvuuuutttttssssrrrrqqqqqpppppooooonnnnnmmmmmllllllkkkkkkkjjjjjjjjiiiiiiiiihhhhhhhhhhhhhhgggggggggggggggggg
(PID.TID 0000.0001) //     65 z...zzzzyyyyxxxxwwwwvvvvuuuuuttttssssrrrrrqqqqpppppooooonnnnnnmmmmmlllllllkkkkkkjjjjjjjjiiiiiiiiiiihhhhhhhhhhhhhhhhggggggggggggg
(PID.TID 0000.0001) //     64 z...zzzzyyyyxxxxwwwwvvvvvuuuuttttsssssrrrrqqqqqpppppooooonnnnnnmmmmmlllllllkkkkkkkjjjjjjjjiiiiiiiiiiihhhhhhhhhhhhhhhhhhhhhhhhhhh
(PID.TID 0000.0001) //     63 z...zzzzyyyyxxxxxwwwwvvvvuuuutttttssssrrrrrqqqqqpppppooooonnnnnnmmmmmmllllllkkkkkkkkjjjjjjjjiiiiiiiiiiiiihhhhhhhhhhhhhhhhhhhhhhh
(PID.TID 0000.0001) //     62 z...zzzzyyyyxxxxxwwwwvvvvuuuuuttttsssssrrrrqqqqqpppppoooooonnnnnnmmmmmmlllllllkkkkkkkjjjjjjjjjjiiiiiiiiiiiiihhhhhhhhhhhhhhhhhhhh
(PID.TID 0000.0001) //     61 z...zzzzyyyyyxxxxwwwwvvvvvuuuutttttssssrrrrrqqqqqpppppoooooonnnnnnmmmmmmlllllllkkkkkkkkjjjjjjjjjjiiiiiiiiiiiiiiiiihhhhhhhhhhhhhh
(PID.TID 0000.0001) //     60 z...zzzzyyyyyxxxxwwwwvvvvvuuuutttttsssssrrrrrqqqqqpppppoooooonnnnnnmmmmmmllllllllkkkkkkkkjjjjjjjjjjjiiiiiiiiiiiiiiiiiiiiiiiiiiii
(PID.TID 0000.0001) //     59 z...zzzzzyyyyxxxxwwwwwvvvvuuuuutttttssssrrrrrqqqqqqpppppoooooonnnnnnmmmmmmmlllllllkkkkkkkkkjjjjjjjjjjjjjiiiiiiiiiiiiiiiiiiiiiiii
(PID.TID 0000.0001) //     58 z...zzzzzyyyyxxxxxwwwwvvvvvuuuutttttsssssrrrrrqqqqqppppppoooooonnnnnnmmmmmmmllllllllkkkkkkkkkkjjjjjjjjjjjjjjiiiiiiiiiiiiiiiiiiii
(PID.TID 0000.0001) //     57 z...zzzzzyyyyxxxxxwwwwvvvvvuuuuutttttsssssrrrrrqqqqqppppppoooooonnnnnnmmmmmmmmllllllllkkkkkkkkkkkjjjjjjjjjjjjjjjjjiiiiiiiiiiiiii
(PID.TID 0000.0001) //     56 z...zzzzzyyyyxxxxxwwwwwvvvvuuuuutttttsssssrrrrrqqqqqqppppppoooooonnnnnnnmmmmmmmlllllllllkkkkkkkkkkkkjjjjjjjjjjjjjjjjjjjjjjjjjjjj
(PID.TID 0000.0001) //     55 z...zzzzzyyyyyxxxxwwwwwvvvvvuuuuutttttsssssrrrrrqqqqqqppppppoooooonnnnnnnmmmmmmmmllllllllllkkkkkkkkkkkkkjjjjjjjjjjjjjjjjjjjjjjjj
(PID.TID 0000.0001) //     54 z...zzzzzyyyyyxxxxxwwwwvvvvvuuuuutttttssssssrrrrrqqqqqqppppppooooooonnnnnnnmmmmmmmmllllllllllkkkkkkkkkkkkkkkjjjjjjjjjjjjjjjjjjjj
(PID.TID 0000.0001) //     53 z...zzzzzyyyyyxxxxxwwwwwvvvvvuuuuutttttsssssrrrrrrqqqqqqppppppooooooonnnnnnnnmmmmmmmmlllllllllllkkkkkkkkkkkkkkkkkkkjjjjjjjjjjjjj
(PID.TID 0000.0001) //     52 z...zzzzzyyyyyxxxxxwwwwwvvvvvuuuuuttttttsssssrrrrrrqqqqqqppppppoooooooonnnnnnnmmmmmmmmmmllllllllllllkkkkkkkkkkkkkkkkkkkkkkkkkkkk
(PID.TID 0000.0001) //     51 +...+zzzzyyyyyxxxxxwwwwwvvvvvvuuuuutttttssssssrrrrrrqqqqqqpppppppooooooonnnnnnnnmmmmmmmmmmllllllllllllllkkkkkkkkkkkkkkkkkkkkkkkk
(PID.TID 0000.0001) //     50 +...+zzzzzyyyyyxxxxxwwwwwvvvvvuuuuuttttttssssssrrrrrrqqqqqqpppppppoooooooonnnnnnnnnmmmmmmmmmmlllllllllllllllllkkkkkkkkkkkkkkkkkk
(PID.TID 0000.0001) //     49 +...+zzzzzyyyyyxxxxxwwwwwvvvvvvuuuuuttttttssssssrrrrrrqqqqqqqpppppppoooooooonnnnnnnnnmmmmmmmmmmmmllllllllllllllllllllllkkkkkkkkk
(PID.TID 0000.0001) //     48 +...+zzzzzyyyyyxxxxxwwwwwwvvvvvuuuuuuttttttssssssrrrrrrqqqqqqqpppppppooooooooonnnnnnnnnnmmmmmmmmmmmmmlllllllllllllllllllllllllll
(PID.TID 0000.0001) //     47 +...+zzzzzyyyyyxxxxxxwwwwwvvvvvvuuuuuttttttsssssssrrrrrrqqqqqqqppppppppooooooooonnnnnnnnnnmmmmmmmmmmmmmmmmllllllllllllllllllllll
(PID.TID 0000.0001) //     46 +...+zzzzzyyyyyyxxxxxwwwwwwvvvvvuuuuuuttttttsssssssrrrrrrqqqqqqqqppppppppooooooooonnnnnnnnnnnnmmmmmmmmmmmmmmmmmmmlllllllllllllll
(PID.TID 0000.0001) //     45 +...+zzzzzyyyyyyxxxxxwwwwwwvvvvvvuuuuuuttttttsssssssrrrrrrrqqqqqqqpppppppppoooooooooonnnnnnnnnnnnnmmmmmmmmmmmmmmmmmmmmmmmmmmmmmm
(PID.TID 0000.0001) //     44 +...+zzzzzyyyyyyxxxxxxwwwwwwvvvvvvuuuuuuttttttsssssssrrrrrrrqqqqqqqqpppppppppooooooooooonnnnnnnnnnnnnnmmmmmmmmmmmmmmmmmmmmmmmmmm
(PID.TID 0000.0001) //     43 +...+zzzzzzyyyyyxxxxxxwwwwwwvvvvvvuuuuuuuttttttsssssssrrrrrrrrqqqqqqqqpppppppppoooooooooooonnnnnnnnnnnnnnnnnnmmmmmmmmmmmmmmmmmmm
(PID.TID 0000.0001) //     42 +...+zzzzzzyyyyyyxxxxxxwwwwwwvvvvvvuuuuuuuttttttssssssssrrrrrrrqqqqqqqqqppppppppppooooooooooooonnnnnnnnnnnnnnnnnnnnnnnnnmmmmmmmm
(PID.TID 0000.0001) //     41 +...+zzzzzzyyyyyyxxxxxxwwwwwwvvvvvvvuuuuuuutttttttsssssssrrrrrrrrqqqqqqqqqpppppppppppoooooooooooooonnnnnnnnnnnnnnnnnnnnnnnnnnnnn
(PID.TID 0000.0001) //     40 +...+zzzzzzyyyyyyxxxxxxxwwwwwwvvvvvvvuuuuuuutttttttssssssssrrrrrrrrqqqqqqqqqqpppppppppppooooooooooooooooonnnnnnnnnnnnnnnnnnnnnnn
(PID.TID 0000.0001) //     39 +...+zzzzzzyyyyyyyxxxxxxwwwwwwwvvvvvvvuuuuuuutttttttssssssssrrrrrrrrrqqqqqqqqqqpppppppppppppoooooooooooooooooooooonnnnnnnnnnnnnn
(PID.TID 0000.0001) //     38 +...+zzzzzzzyyyyyyxxxxxxxwwwwwwwvvvvvvvuuuuuuuttttttttssssssssrrrrrrrrrqqqqqqqqqqqpppppppppppppppooooooooooooooooooooooooooooooo
(PID.TID 0000.0001) //     37 +...+zzzzzzzyyyyyyyxxxxxxwwwwwwwvvvvvvvvuuuuuuuttttttttsssssssssrrrrrrrrrrqqqqqqqqqqqqppppppppppppppppoooooooooooooooooooooooooo
(PID.TID 0000.0001) //     36 +...+zzzzzzzyyyyyyyxxxxxxxwwwwwwwvvvvvvvvuuuuuuutttttttttsssssssssrrrrrrrrrrrqqqqqqqqqqqqqppppppppppppppppppppoooooooooooooooooo
(PID.TID 0000.0001) //     35 +...++zzzzzzyyyyyyyyxxxxxxxwwwwwwwvvvvvvvvuuuuuuuutttttttttsssssssssrrrrrrrrrrrrqqqqqqqqqqqqqqpppppppppppppppppppppppppppppppppp
(PID.TID 0000.0001) //     34 +...++zzzzzzzyyyyyyyxxxxxxxwwwwwwwwvvvvvvvvuuuuuuuuttttttttttssssssssssrrrrrrrrrrrrqqqqqqqqqqqqqqqqqpppppppppppppppppppppppppppp
(PID.TID 0000.0001) //     33 +...++zzzzzzzyyyyyyyyxxxxxxxwwwwwwwwvvvvvvvvuuuuuuuuuttttttttttsssssssssssrrrrrrrrrrrrrqqqqqqqqqqqqqqqqqqqqqpppppppppppppppppppp
(PID.TID 0000.0001) //     32 +...++zzzzzzzyyyyyyyyxxxxxxxxwwwwwwwwvvvvvvvvvuuuuuuuuuttttttttttssssssssssssrrrrrrrrrrrrrrrqqqqqqqqqqqqqqqqqqqqqqqqqqqqqqqqqqqq
(PID.TID 0000.0001) //     31 +...++zzzzzzzzyyyyyyyyxxxxxxxxwwwwwwwwvvvvvvvvvuuuuuuuuuutttttttttttssssssssssssrrrrrrrrrrrrrrrrrqqqqqqqqqqqqqqqqqqqqqqqqqqqqqqq
(PID.TID 0000.0001) //     30 +...++zzzzzzzzyyyyyyyyxxxxxxxxxwwwwwwwwwvvvvvvvvvuuuuuuuuuutttttttttttssssssssssssssrrrrrrrrrrrrrrrrrrrrrqqqqqqqqqqqqqqqqqqqqqqq
(PID.TID 0000.0001) //     29 +...++zzzzzzzzzyyyyyyyyxxxxxxxxxwwwwwwwwwvvvvvvvvvvuuuuuuuuuutttttttttttttsssssssssssssssrrrrrrrrrrrrrrrrrrrrrrrrrrrrrrrqqqqqqqq
(PID.TID 0000.0001) //     28 +...++zzzzzzzzzyyyyyyyyyxxxxxxxxxwwwwwwwwwvvvvvvvvvvvuuuuuuuuuuutttttttttttttssssssssssssssssssrrrrrrrrrrrrrrrrrrrrrrrrrrrrrrrrr
(PID.TID 0000.0001) //     27 +...+++zzzzzzzzzyyyyyyyyyxxxxxxxxxwwwwwwwwwwvvvvvvvvvvvuuuuuuuuuuuuttttttttttttttssssssssssssssssssssssrrrrrrrrrrrrrrrrrrrrrrrrr
(PID.TID 0000.0001) //     26 +...+++zzzzzzzzzyyyyyyyyyyxxxxxxxxxwwwwwwwwwwwvvvvvvvvvvvuuuuuuuuuuuuuttttttttttttttttsssssssssssssssssssssssssssssssrrrrrrrrrrr
(PID.TID 0000.0001) //     25 +...+++zzzzzzzzzzyyyyyyyyyxxxxxxxxxxxwwwwwwwwwwwvvvvvvvvvvvvuuuuuuuuuuuuuuttttttttttttttttttssssssssssssssssssssssssssssssssssss
(PID.TID 0000.0001) //     24 +...+++zzzzzzzzzzyyyyyyyyyyyxxxxxxxxxxwwwwwwwwwwwwvvvvvvvvvvvvvuuuuuuuuuuuuuuutttttttttttttttttttttttsssssssssssssssssssssssssss
(PID.TID 0000.0001) //     23 +...+++zzzzzzzzzzzyyyyyyyyyyyxxxxxxxxxxxwwwwwwwwwwwwvvvvvvvvvvvvvvuuuuuuuuuuuuuuuuutttttttttttttttttttttttttttttttssssssssssssss
(PID.TID 0000.0001) //     22 +...++++zzzzzzzzzzzyyyyyyyyyyyxxxxxxxxxxxxwwwwwwwwwwwwwvvvvvvvvvvvvvvvuuuuuuuuuuuuuuuuuuuutttttttttttttttttttttttttttttttttttttt
(PID.TID 0000.0001) //     21 +...++++zzzzzzzzzzzyyyyyyyyyyyyxxxxxxxxxxxxxwwwwwwwwwwwwwwvvvvvvvvvvvvvvvvvuuuuuuuuuuuuuuuuuuuuuuutttttttttttttttttttttttttttttt
(PID.TID 0000.0001) //     20 +...++++zzzzzzzzzzzzyyyyyyyyyyyyyxxxxxxxxxxxxxwwwwwwwwwwwwwwwvvvvvvvvvvvvvvvvvvvuuuuuuuuuuuuuuuuuuuuuuuuuuuuuuuuuttttttttttttttt
(PID.TID 0000.0001) //     19 +...+++++zzzzzzzzzzzzyyyyyyyyyyyyyyxxxxxxxxxxxxxxwwwwwwwwwwwwwwwwvvvvvvvvvvvvvvvvvvvvvvuuuuuuuuuuuuuuuuuuuuuuuuuuuuuuuuuuuuuuuuu
(PID.TID 0000.0001) //     18 +...+++++zzzzzzzzzzzzzyyyyyyyyyyyyyyyxxxxxxxxxxxxxxxwwwwwwwwwwwwwwwwwwvvvvvvvvvvvvvvvvvvvvvvvvvvuuuuuuuuuuuuuuuuuuuuuuuuuuuuuuuu
(PID.TID 0000.0001) //     17 +...+++++zzzzzzzzzzzzzzzyyyyyyyyyyyyyyyxxxxxxxxxxxxxxxxxwwwwwwwwwwwwwwwwwwwwvvvvvvvvvvvvvvvvvvvvvvvvvvvvvvvvvvvvuuuuuuuuuuuuuuuu
(PID.TID 0000.0001) //     16 +...++++++zzzzzzzzzzzzzzzyyyyyyyyyyyyyyyyxxxxxxxxxxxxxxxxxxxwwwwwwwwwwwwwwwwwwwwwwwvvvvvvvvvvvvvvvvvvvvvvvvvvvvvvvvvvvvvvvvvvvvv
(PID.TID 0000.0001) //     15 +...++++++zzzzzzzzzzzzzzzzzyyyyyyyyyyyyyyyyyxxxxxxxxxxxxxxxxxxxxxwwwwwwwwwwwwwwwwwwwwwwwwwwwwvvvvvvvvvvvvvvvvvvvvvvvvvvvvvvvvvvv
(PID.TID 0000.0001) //     14 +...+++++++zzzzzzzzzzzzzzzzzzyyyyyyyyyyyyyyyyyyyxxxxxxxxxxxxxxxxxxxxxxxwwwwwwwwwwwwwwwwwwwwwwwwwwwwwwwwwwwwwwwwvvvvvvvvvvvvvvvvv
(PID.TID 0000.0001) //     13 +...++++++++zzzzzzzzzzzzzzzzzzzyyyyyyyyyyyyyyyyyyyyyxxxxxxxxxxxxxxxxxxxxxxxxxxxwwwwwwwwwwwwwwwwwwwwwwwwwwwwwwwwwwwwwwwwwwwwwwwww
(PID.TID 0000.0001) //     12 +...++++++++zzzzzzzzzzzzzzzzzzzzzyyyyyyyyyyyyyyyyyyyyyyyyxxxxxxxxxxxxxxxxxxxxxxxxxxxxxxxxxwwwwwwwwwwwwwwwwwwwwwwwwwwwwwwwwwwwwww
(PID.TID 0000.0001) //     11 +...+++++++++zzzzzzzzzzzzzzzzzzzzzzzyyyyyyyyyyyyyyyyyyyyyyyyyyyxxxxxxxxxxxxxxxxxxxxxxxxxxxxxxxxxxxxxxxxxxxxxxxxwwwwwwwwwwwwwwwww
(PID.TID 0000.0001) //     10 +...+++++++++++zzzzzzzzzzzzzzzzzzzzzzzzzyyyyyyyyyyyyyyyyyyyyyyyyyyyyyyyyxxxxxxxxxxxxxxxxxxxxxxxxxxxxxxxxxxxxxxxxxxxxxxxxxxxxxxxx
(PID.TID 0000.0001) //      9 +...++++++++++++zzzzzzzzzzzzzzzzzzzzzzzzzzzzzyyyyyyyyyyyyyyyyyyyyyyyyyyyyyyyyyyyyyyyyxxxxxxxxxxxxxxxxxxxxxxxxxxxxxxxxxxxxxxxxxxx
[...]
 cg2d: Sum(rhs),rhsMax =  -6.24304163920897E-10  2.06038639718327E-03
 cg2d: Sum(rhs),rhsMax =  -6.43879616291088E-10  2.08686110612999E-03
(PID.TID 0000.0001)      cg2d_init_res =   2.19609124255652E-01
(PID.TID 0000.0001)      cg2d_iters(min,last) =      -1     576
(PID.TID 0000.0001)      cg2d_last_res =   9.22917252430144E-08
(PID.TID 0000.0001) // =======================================================
(PID.TID 0000.0001) // Begin MONITOR dynamic field statistics
(PID.TID 0000.0001) // =======================================================
(PID.TID 0000.0001) %MON time_tsnumber                =                    80
(PID.TID 0000.0001) %MON time_secondsf                =   4.3200000000000E+05
(PID.TID 0000.0001) %MON dynstat_eta_max              =   9.7289505464338E-03
(PID.TID 0000.0001) %MON dynstat_eta_min              =  -7.8677356710732E-03
(PID.TID 0000.0001) %MON dynstat_eta_mean             =   1.3443642487111E-13
(PID.TID 0000.0001) %MON dynstat_eta_sd               =   4.7658962725534E-03
(PID.TID 0000.0001) %MON dynstat_eta_del2             =   3.6439982736028E-08
(PID.TID 0000.0001) %MON dynstat_uvel_max             =   5.3596074103300E-03
(PID.TID 0000.0001) %MON dynstat_uvel_min             =  -4.2439582470364E-03
(PID.TID 0000.0001) %MON dynstat_uvel_mean            =  -4.5483002323626E-07
(PID.TID 0000.0001) %MON dynstat_uvel_sd              =   2.4467375010210E-03
(PID.TID 0000.0001) %MON dynstat_uvel_del2            =   1.7016575926904E-07
(PID.TID 0000.0001) %MON dynstat_vvel_max             =   1.1282986833755E-02
(PID.TID 0000.0001) %MON dynstat_vvel_min             =  -3.4309207545542E-03
(PID.TID 0000.0001) %MON dynstat_vvel_mean            =   6.7138536405253E-08
(PID.TID 0000.0001) %MON dynstat_vvel_sd              =   2.7540685092976E-03
(PID.TID 0000.0001) %MON dynstat_vvel_del2            =   3.8208568430365E-07
(PID.TID 0000.0001) %MON dynstat_wvel_max             =   2.5979706145881E-08
(PID.TID 0000.0001) %MON dynstat_wvel_min             =  -1.3045589058529E-08
(PID.TID 0000.0001) %MON dynstat_wvel_mean            =  -2.5903928838535E-22
(PID.TID 0000.0001) %MON dynstat_wvel_sd              =   1.0900221899486E-08
(PID.TID 0000.0001) %MON dynstat_wvel_del2            =   1.0588832232681E-13
(PID.TID 0000.0001) %MON dynstat_theta_max            =   2.0000000000000E+01
(PID.TID 0000.0001) %MON dynstat_theta_min            =   2.0000000000000E+01
(PID.TID 0000.0001) %MON dynstat_theta_mean           =   2.0000000000000E+01
(PID.TID 0000.0001) %MON dynstat_theta_sd             =   4.8316906031686E-13
(PID.TID 0000.0001) %MON dynstat_theta_del2           =   0.0000000000000E+00
(PID.TID 0000.0001) %MON dynstat_salt_max             =   3.0000000000000E+01
(PID.TID 0000.0001) %MON dynstat_salt_min             =   3.0000000000000E+01
(PID.TID 0000.0001) %MON dynstat_salt_mean            =   2.9999999999999E+01
(PID.TID 0000.0001) %MON dynstat_salt_sd              =   9.4502183856091E-13
(PID.TID 0000.0001) %MON dynstat_salt_del2            =   0.0000000000000E+00
(PID.TID 0000.0001) %MON trAdv_CFL_u_max              =   5.7078971182730E-03
(PID.TID 0000.0001) %MON trAdv_CFL_v_max              =   1.1993883718894E-02
(PID.TID 0000.0001) %MON trAdv_CFL_w_max              =   3.0028869075699E-08
(PID.TID 0000.0001) %MON advcfl_uvel_max              =   5.7883760031564E-03
(PID.TID 0000.0001) %MON advcfl_vvel_max              =   1.2185625780456E-02
(PID.TID 0000.0001) %MON advcfl_wvel_max              =   5.6116165275103E-08
(PID.TID 0000.0001) %MON advcfl_W_hf_max              =   0.0000000000000E+00
(PID.TID 0000.0001) %MON pe_b_mean                    =   2.3239294984819E-08
(PID.TID 0000.0001) %MON ke_max                       =   6.3650054235662E-05
(PID.TID 0000.0001) %MON ke_mean                      =   6.7551639235226E-06
(PID.TID 0000.0001) %MON ke_vol                       =   7.2529629296389E+15
(PID.TID 0000.0001) %MON vort_r_min                   =  -5.9290107561925E-08
(PID.TID 0000.0001) %MON vort_r_max                   =   7.7527578628104E-07
(PID.TID 0000.0001) %MON vort_a_mean                  =   8.2300000000000E-05
(PID.TID 0000.0001) %MON vort_a_sd                    =   7.1300018782740E-06
(PID.TID 0000.0001) %MON vort_p_mean                  =   8.6919888360245E-05
(PID.TID 0000.0001) %MON vort_p_sd                    =   1.7856755934288E-05
(PID.TID 0000.0001) %MON surfExpan_theta_mean         =  -5.0593611012763E-21
(PID.TID 0000.0001) %MON surfExpan_salt_mean          =  -6.7233715015060E-21
(PID.TID 0000.0001) // =======================================================
(PID.TID 0000.0001) // End MONITOR dynamic field statistics
(PID.TID 0000.0001) // =======================================================
 cg2d: Sum(rhs),rhsMax =  -6.60815402397930E-10  2.11336308853065E-03
 cg2d: Sum(rhs),rhsMax =  -6.82476297697576E-10  2.13989054247678E-03
 cg2d: Sum(rhs),rhsMax =  -7.00300262224118E-10  2.16644164032873E-03
 cg2d: Sum(rhs),rhsMax =  -7.23385795708964E-10  2.19301452996064E-03
 cg2d: Sum(rhs),rhsMax =  -7.40637773333219E-10  2.21960733595846E-03
 cg2d: Sum(rhs),rhsMax =  -7.67482077890236E-10  2.24621816062786E-03
 cg2d: Sum(rhs),rhsMax =  -7.97612642600143E-10  2.27284508570010E-03
 cg2d: Sum(rhs),rhsMax =  -8.24744716965142E-10  2.29948766244473E-03
 cg2d: Sum(rhs),rhsMax =  -8.54623039003855E-10  2.32618267403502E-03
 cg2d: Sum(rhs),rhsMax =  -8.83538575635612E-10  2.35288966769175E-03
 cg2d: Sum(rhs),rhsMax =  -9.12795172780534E-10  2.37960666920079E-03
 cg2d: Sum(rhs),rhsMax =  -9.45075129266115E-10  2.40633168819214E-03
 cg2d: Sum(rhs),rhsMax =  -9.74171854295491E-10  2.43306271922269E-03
 cg2d: Sum(rhs),rhsMax =  -1.00896713206566E-09  2.45979774254615E-03
 cg2d: Sum(rhs),rhsMax =  -1.04470032624704E-09  2.48653472508966E-03
 cg2d: Sum(rhs),rhsMax =  -1.08178710434004E-09  2.51327162123251E-03
(PID.TID 0000.0001)      cg2d_init_res =   1.87716469922485E-01
(PID.TID 0000.0001)      cg2d_iters(min,last) =      -1     575
(PID.TID 0000.0001)      cg2d_last_res =   9.61708341535157E-08
(PID.TID 0000.0001) // =======================================================
(PID.TID 0000.0001) // Begin MONITOR dynamic field statistics
(PID.TID 0000.0001) // =======================================================
(PID.TID 0000.0001) %MON time_tsnumber                =                    96
(PID.TID 0000.0001) %MON time_secondsf                =   5.1840000000000E+05
(PID.TID 0000.0001) %MON dynstat_eta_max              =   1.1674563166186E-02
(PID.TID 0000.0001) %MON dynstat_eta_min              =  -8.8664466050164E-03
(PID.TID 0000.0001) %MON dynstat_eta_mean             =   2.7330220520193E-13
(PID.TID 0000.0001) %MON dynstat_eta_sd               =   5.5789649933154E-03
(PID.TID 0000.0001) %MON dynstat_eta_del2             =   4.5092045832517E-08
(PID.TID 0000.0001) %MON dynstat_uvel_max             =   6.5686817505199E-03
(PID.TID 0000.0001) %MON dynstat_uvel_min             =  -4.7652476539555E-03
(PID.TID 0000.0001) %MON dynstat_uvel_mean            =  -4.8381166203700E-07
(PID.TID 0000.0001) %MON dynstat_uvel_sd              =   2.8200156816069E-03
(PID.TID 0000.0001) %MON dynstat_uvel_del2            =   1.7750984981462E-07
(PID.TID 0000.0001) %MON dynstat_vvel_max             =   1.4194370317794E-02
(PID.TID 0000.0001) %MON dynstat_vvel_min             =  -3.4788502722056E-03
(PID.TID 0000.0001) %MON dynstat_vvel_mean            =   1.1437194617336E-07
(PID.TID 0000.0001) %MON dynstat_vvel_sd              =   3.2933667482046E-03
(PID.TID 0000.0001) %MON dynstat_vvel_del2            =   4.4910815854897E-07
(PID.TID 0000.0001) %MON dynstat_wvel_max             =   2.6843827213452E-08
(PID.TID 0000.0001) %MON dynstat_wvel_min             =  -1.0905246079789E-08
(PID.TID 0000.0001) %MON dynstat_wvel_mean            =   1.0021767145707E-22
(PID.TID 0000.0001) %MON dynstat_wvel_sd              =   1.0566214766378E-08
(PID.TID 0000.0001) %MON dynstat_wvel_del2            =   1.1127842549257E-13
(PID.TID 0000.0001) %MON dynstat_theta_max            =   2.0000000000000E+01
(PID.TID 0000.0001) %MON dynstat_theta_min            =   2.0000000000000E+01
(PID.TID 0000.0001) %MON dynstat_theta_mean           =   2.0000000000000E+01
(PID.TID 0000.0001) %MON dynstat_theta_sd             =   4.8316906031686E-13
(PID.TID 0000.0001) %MON dynstat_theta_del2           =   0.0000000000000E+00
(PID.TID 0000.0001) %MON dynstat_salt_max             =   3.0000000000000E+01
(PID.TID 0000.0001) %MON dynstat_salt_min             =   3.0000000000000E+01
(PID.TID 0000.0001) %MON dynstat_salt_mean            =   2.9999999999999E+01
(PID.TID 0000.0001) %MON dynstat_salt_sd              =   9.4502183856091E-13
(PID.TID 0000.0001) %MON dynstat_salt_del2            =   0.0000000000000E+00
(PID.TID 0000.0001) %MON trAdv_CFL_u_max              =   7.0105102405978E-03
(PID.TID 0000.0001) %MON trAdv_CFL_v_max              =   1.5129884990064E-02
(PID.TID 0000.0001) %MON trAdv_CFL_w_max              =   3.0799788686421E-08
(PID.TID 0000.0001) %MON advcfl_uvel_max              =   7.0941762905615E-03
(PID.TID 0000.0001) %MON advcfl_vvel_max              =   1.5329919943217E-02
(PID.TID 0000.0001) %MON advcfl_wvel_max              =   5.7982666781056E-08
(PID.TID 0000.0001) %MON advcfl_W_hf_max              =   0.0000000000000E+00
(PID.TID 0000.0001) %MON pe_b_mean                    =   3.1844985060635E-08
(PID.TID 0000.0001) %MON ke_max                       =   1.0073561335746E-04
(PID.TID 0000.0001) %MON ke_mean                      =   9.3570664436509E-06
(PID.TID 0000.0001) %MON ke_vol                       =   7.2529629296389E+15
(PID.TID 0000.0001) %MON vort_r_min                   =  -8.1195230461296E-08
(PID.TID 0000.0001) %MON vort_r_max                   =   9.5055727260914E-07
(PID.TID 0000.0001) %MON vort_a_mean                  =   8.2300000000000E-05
(PID.TID 0000.0001) %MON vort_a_sd                    =   7.1301088786238E-06
(PID.TID 0000.0001) %MON vort_p_mean                  =   8.6919888360245E-05
(PID.TID 0000.0001) %MON vort_p_sd                    =   1.7860328104434E-05
(PID.TID 0000.0001) %MON surfExpan_theta_mean         =   2.1545568187945E-21
(PID.TID 0000.0001) %MON surfExpan_salt_mean          =   3.0779383125635E-21
(PID.TID 0000.0001) // =======================================================
(PID.TID 0000.0001) // End MONITOR dynamic field statistics
(PID.TID 0000.0001) // =======================================================
 cg2d: Sum(rhs),rhsMax =  -1.11730713570068E-09  2.54000637369982E-03
 cg2d: Sum(rhs),rhsMax =  -1.15448983706301E-09  2.56676770177390E-03
 cg2d: Sum(rhs),rhsMax =  -1.19643317475493E-09  2.59354702156961E-03
 cg2d: Sum(rhs),rhsMax =  -1.23629462223107E-09  2.62031989153430E-03
(PID.TID 0000.0001) %CHECKPOINT       100 ckptA
(PID.TID 0000.0001)   Seconds in section "ALL                    [THE_MODEL_MAIN]":
(PID.TID 0000.0001)           User time:   575.564655015245
(PID.TID 0000.0001)         System time:  0.000000000000000E+000
(PID.TID 0000.0001)     Wall clock time:   599.456250905991
(PID.TID 0000.0001)          No. starts:           1
(PID.TID 0000.0001)           No. stops:           1
(PID.TID 0000.0001)   Seconds in section "INITIALISE_FIXED       [THE_MODEL_MAIN]":
(PID.TID 0000.0001)           User time:  7.087500020861626E-002
(PID.TID 0000.0001)         System time:  0.000000000000000E+000
(PID.TID 0000.0001)     Wall clock time:  0.274116992950439
(PID.TID 0000.0001)          No. starts:           1
(PID.TID 0000.0001)           No. stops:           1
(PID.TID 0000.0001)   Seconds in section "THE_MAIN_LOOP          [THE_MODEL_MAIN]":
(PID.TID 0000.0001)           User time:   575.493684977293
(PID.TID 0000.0001)         System time:  0.000000000000000E+000
(PID.TID 0000.0001)     Wall clock time:   599.182067871094
(PID.TID 0000.0001)          No. starts:           1
(PID.TID 0000.0001)           No. stops:           1
(PID.TID 0000.0001)   Seconds in section "INITIALISE_VARIA    [THE_MAIN_LOOP]":
(PID.TID 0000.0001)           User time:  2.307400107383728E-002
(PID.TID 0000.0001)         System time:  0.000000000000000E+000
(PID.TID 0000.0001)     Wall clock time:  8.134102821350098E-002
(PID.TID 0000.0001)          No. starts:           1
(PID.TID 0000.0001)           No. stops:           1
(PID.TID 0000.0001)   Seconds in section "MAIN LOOP           [THE_MAIN_LOOP]":
(PID.TID 0000.0001)           User time:   575.470573984087
(PID.TID 0000.0001)         System time:  0.000000000000000E+000
(PID.TID 0000.0001)     Wall clock time:   599.100656032562
(PID.TID 0000.0001)          No. starts:           1
(PID.TID 0000.0001)           No. stops:           1
(PID.TID 0000.0001)   Seconds in section "MAIN_DO_LOOP        [THE_MAIN_LOOP]":
(PID.TID 0000.0001)           User time:   575.469431012869
(PID.TID 0000.0001)         System time:  0.000000000000000E+000
(PID.TID 0000.0001)     Wall clock time:   599.099094629288
(PID.TID 0000.0001)          No. starts:         100
(PID.TID 0000.0001)           No. stops:         100
(PID.TID 0000.0001)   Seconds in section "FORWARD_STEP        [MAIN_DO_LOOP]":
(PID.TID 0000.0001)           User time:   575.467226810753
(PID.TID 0000.0001)         System time:  0.000000000000000E+000
(PID.TID 0000.0001)     Wall clock time:   599.096300840378
(PID.TID 0000.0001)          No. starts:         100
(PID.TID 0000.0001)           No. stops:         100
(PID.TID 0000.0001)   Seconds in section "LOAD_FIELDS_DRIVER  [FORWARD_STEP]":
(PID.TID 0000.0001)           User time:  3.537967801094055E-003
(PID.TID 0000.0001)         System time:  0.000000000000000E+000
(PID.TID 0000.0001)     Wall clock time:  4.118204116821289E-003
(PID.TID 0000.0001)          No. starts:         100
(PID.TID 0000.0001)           No. stops:         100
(PID.TID 0000.0001)   Seconds in section "EXTERNAL_FLDS_LOAD [LOAD_FLDS_DRIVER]":
(PID.TID 0000.0001)           User time:  1.250281929969788E-003
(PID.TID 0000.0001)         System time:  0.000000000000000E+000
(PID.TID 0000.0001)     Wall clock time:  1.389503479003906E-003
(PID.TID 0000.0001)          No. starts:         100
(PID.TID 0000.0001)           No. stops:         100
(PID.TID 0000.0001)   Seconds in section "DO_ATMOSPHERIC_PHYS [FORWARD_STEP]":
(PID.TID 0000.0001)           User time:  1.148372888565063E-003
(PID.TID 0000.0001)         System time:  0.000000000000000E+000
(PID.TID 0000.0001)     Wall clock time:  1.360654830932617E-003
(PID.TID 0000.0001)          No. starts:         100
(PID.TID 0000.0001)           No. stops:         100
(PID.TID 0000.0001)   Seconds in section "DO_OCEANIC_PHYS     [FORWARD_STEP]":
(PID.TID 0000.0001)           User time:   23.5503443852067
(PID.TID 0000.0001)         System time:  0.000000000000000E+000
(PID.TID 0000.0001)     Wall clock time:   24.4194970130920
(PID.TID 0000.0001)          No. starts:         100
(PID.TID 0000.0001)           No. stops:         100
(PID.TID 0000.0001)   Seconds in section "THERMODYNAMICS      [FORWARD_STEP]":
(PID.TID 0000.0001)           User time:   12.5447056666017
(PID.TID 0000.0001)         System time:  0.000000000000000E+000
(PID.TID 0000.0001)     Wall clock time:   13.0435597896576
(PID.TID 0000.0001)          No. starts:         100
(PID.TID 0000.0001)           No. stops:         100
(PID.TID 0000.0001)   Seconds in section "DYNAMICS            [FORWARD_STEP]":
(PID.TID 0000.0001)           User time:   394.355972103775
(PID.TID 0000.0001)         System time:  0.000000000000000E+000
(PID.TID 0000.0001)     Wall clock time:   409.305626869202
(PID.TID 0000.0001)          No. starts:         100
(PID.TID 0000.0001)           No. stops:         100
(PID.TID 0000.0001)   Seconds in section "SOLVE_FOR_PRESSURE  [FORWARD_STEP]":
(PID.TID 0000.0001)           User time:   102.308458164334
(PID.TID 0000.0001)         System time:  0.000000000000000E+000
(PID.TID 0000.0001)     Wall clock time:   107.418094635010
(PID.TID 0000.0001)          No. starts:         100
(PID.TID 0000.0001)           No. stops:         100
(PID.TID 0000.0001)   Seconds in section "MOM_CORRECTION_STEP [FORWARD_STEP]":
(PID.TID 0000.0001)           User time:   18.6117506176233
(PID.TID 0000.0001)         System time:  0.000000000000000E+000
(PID.TID 0000.0001)     Wall clock time:   19.2329998016357
(PID.TID 0000.0001)          No. starts:         100
(PID.TID 0000.0001)           No. stops:         100
(PID.TID 0000.0001)   Seconds in section "INTEGR_CONTINUITY   [FORWARD_STEP]":
(PID.TID 0000.0001)           User time:   11.3112839162350
(PID.TID 0000.0001)         System time:  0.000000000000000E+000
(PID.TID 0000.0001)     Wall clock time:   11.6549501419067
(PID.TID 0000.0001)          No. starts:         100
(PID.TID 0000.0001)           No. stops:         100
(PID.TID 0000.0001)   Seconds in section "TRC_CORRECTION_STEP [FORWARD_STEP]":
(PID.TID 0000.0001)           User time:  1.690834760665894E-003
(PID.TID 0000.0001)         System time:  0.000000000000000E+000
(PID.TID 0000.0001)     Wall clock time:  1.378297805786133E-003
(PID.TID 0000.0001)          No. starts:         100
(PID.TID 0000.0001)           No. stops:         100
(PID.TID 0000.0001)   Seconds in section "BLOCKING_EXCHANGES  [FORWARD_STEP]":
(PID.TID 0000.0001)           User time:   1.05058328807354
(PID.TID 0000.0001)         System time:  0.000000000000000E+000
(PID.TID 0000.0001)     Wall clock time:   1.25279068946838
(PID.TID 0000.0001)          No. starts:         100
(PID.TID 0000.0001)           No. stops:         100
(PID.TID 0000.0001)   Seconds in section "MONITOR             [FORWARD_STEP]":
(PID.TID 0000.0001)           User time:   11.6794062405825
(PID.TID 0000.0001)         System time:  0.000000000000000E+000
(PID.TID 0000.0001)     Wall clock time:   12.5469987392426
(PID.TID 0000.0001)          No. starts:         100
(PID.TID 0000.0001)           No. stops:         100
(PID.TID 0000.0001)   Seconds in section "DO_THE_MODEL_IO     [FORWARD_STEP]":
(PID.TID 0000.0001)           User time:  1.208940148353577E-002
(PID.TID 0000.0001)         System time:  0.000000000000000E+000
(PID.TID 0000.0001)     Wall clock time:  7.778859138488770E-002
(PID.TID 0000.0001)          No. starts:         100
(PID.TID 0000.0001)           No. stops:         100
(PID.TID 0000.0001)   Seconds in section "DO_WRITE_PICKUP     [FORWARD_STEP]":
(PID.TID 0000.0001)           User time:  1.968523859977722E-002
(PID.TID 0000.0001)         System time:  0.000000000000000E+000
(PID.TID 0000.0001)     Wall clock time:  0.118135452270508
(PID.TID 0000.0001)          No. starts:         100
(PID.TID 0000.0001)           No. stops:         100
(PID.TID 0000.0001) // ======================================================
(PID.TID 0000.0001) // Tile <-> Tile communication statistics
(PID.TID 0000.0001) // ======================================================
(PID.TID 0000.0001) // o Tile number: 000001
(PID.TID 0000.0001) //         No. X exchanges =              0
(PID.TID 0000.0001) //            Max. X spins =              0
(PID.TID 0000.0001) //            Min. X spins =     1000000000
(PID.TID 0000.0001) //          Total. X spins =              0
(PID.TID 0000.0001) //            Avg. X spins =       0.00E+00
(PID.TID 0000.0001) //         No. Y exchanges =              0
(PID.TID 0000.0001) //            Max. Y spins =              0
(PID.TID 0000.0001) //            Min. Y spins =     1000000000
(PID.TID 0000.0001) //          Total. Y spins =              0
(PID.TID 0000.0001) //            Avg. Y spins =       0.00E+00
(PID.TID 0000.0001) // o Thread number: 000001
(PID.TID 0000.0001) //            No. barriers =         346620
(PID.TID 0000.0001) //      Max. barrier spins =              1
(PID.TID 0000.0001) //      Min. barrier spins =              1
(PID.TID 0000.0001) //     Total barrier spins =         346620
(PID.TID 0000.0001) //      Avg. barrier spins =       1.00E+00
PROGRAM MAIN: Execution ended Normally
